<routes>
  <vType id="normal_car" vClass="passenger" departspeed="max"/>
  <flow id="downflow" type="normal_car" begin="0" end="5000" vehsPerHour="350" from="upin" to="downout" departPos="last"/>
  <flow id="upflow" type="normal_car" begin="0" end="5000" vehsPerHour="350" from="downin" to="upout" departPos="last"/>
  <flow id="rightflow" type="normal_car" begin="0" end="5000" vehsPerHour="350" from="leftin" to="rightout" departPos="last"/>
  <flow id="leftflow" type="normal_car" begin="0" end="5000" vehsPerHour="350" from="rightin" to="leftout" departPos="last"/>
</routes>