<?xml version="1.0" encoding="UTF-8"?>

<!-- generated on 03/19/19 22:45:01 by Eclipse SUMO netedit Version 1.0.1
<configuration xmlns:xsi="http://www.w3.org/2001/XMLSchema-instance" xsi:noNamespaceSchemaLocation="http://sumo.dlr.de/xsd/netconvertConfiguration.xsd">

    <input>
        <sumo-net-file value="C:\Users\Sam\OneDrive\_University\Year%204\Individual%20Project\SUMOIntersectionResearch\maps\BlackwellTunnelNorthApproach_no_TLS\BlackwellTunnelNorthApproach_no_TLS.net.xml"/>
    </input>

    <output>
        <output-file value="C:\Users\Sam\OneDrive\_University\Year%204\Individual%20Project\SUMOIntersectionResearch\maps\BlackwellTunnelNorthApproach_no_TLS\BlackwellTunnelNorthApproach_no_TLS.net.xml"/>
        <output.street-names value="true"/>
    </output>

    <processing>
        <offset.disable-normalization value="true"/>
        <lefthand value="true"/>
    </processing>

    <junctions>
        <no-turnarounds value="true"/>
        <junctions.corner-detail value="5"/>
        <junctions.limit-turn-speed value="5.5"/>
        <rectangular-lane-cut value="false"/>
    </junctions>

    <pedestrian>
        <walkingareas value="false"/>
    </pedestrian>

</configuration>
-->

<net version="1.0" junctionCornerDetail="5" lefthand="true" limitTurnSpeed="5.50" xmlns:xsi="http://www.w3.org/2001/XMLSchema-instance" xsi:noNamespaceSchemaLocation="http://sumo.dlr.de/xsd/net_file.xsd">

    <location netOffset="-707223.42,-5709593.93" convBoundary="77.38,0.00,1124.15,1767.74" origBoundary="-0.013416,51.499038,0.003102,51.515108" projParameter="+proj=utm +zone=30 +ellps=WGS84 +datum=WGS84 +units=m +no_defs"/>

    <type id="highway.bridleway" priority="1" numLanes="1" speed="2.78" allow="pedestrian" oneway="1" width="2.00"/>
    <type id="highway.bus_guideway" priority="1" numLanes="1" speed="27.78" allow="bus" oneway="1"/>
    <type id="highway.cycleway" priority="1" numLanes="1" speed="8.33" allow="bicycle" oneway="0" width="1.00"/>
    <type id="highway.footway" priority="1" numLanes="1" speed="2.78" allow="pedestrian" oneway="1" width="2.00"/>
    <type id="highway.ford" priority="1" numLanes="1" speed="2.78" allow="army" oneway="0"/>
    <type id="highway.living_street" priority="3" numLanes="1" speed="2.78" disallow="tram rail_urban rail rail_electric ship" oneway="0"/>
    <type id="highway.motorway" priority="13" numLanes="2" speed="44.44" allow="private emergency authority army vip passenger hov taxi bus coach delivery truck trailer motorcycle evehicle custom1 custom2" oneway="1"/>
    <type id="highway.motorway_link" priority="12" numLanes="1" speed="22.22" allow="private emergency authority army vip passenger hov taxi bus coach delivery truck trailer motorcycle evehicle custom1 custom2" oneway="1"/>
    <type id="highway.path" priority="1" numLanes="1" speed="2.78" allow="bicycle pedestrian" oneway="1" width="2.00"/>
    <type id="highway.pedestrian" priority="1" numLanes="1" speed="2.78" allow="pedestrian" oneway="1" width="2.00"/>
    <type id="highway.primary" priority="9" numLanes="2" speed="27.78" disallow="tram rail_urban rail rail_electric ship" oneway="0"/>
    <type id="highway.primary_link" priority="8" numLanes="1" speed="22.22" disallow="tram rail_urban rail rail_electric ship" oneway="0"/>
    <type id="highway.raceway" priority="14" numLanes="2" speed="83.33" allow="vip" oneway="0"/>
    <type id="highway.residential" priority="4" numLanes="1" speed="13.89" disallow="tram rail_urban rail rail_electric ship" oneway="0"/>
    <type id="highway.secondary" priority="7" numLanes="2" speed="27.78" disallow="tram rail_urban rail rail_electric ship" oneway="0"/>
    <type id="highway.secondary_link" priority="6" numLanes="1" speed="22.22" disallow="tram rail_urban rail rail_electric ship" oneway="0"/>
    <type id="highway.service" priority="2" numLanes="1" speed="5.56" allow="delivery bicycle pedestrian" oneway="0"/>
    <type id="highway.stairs" priority="1" numLanes="1" speed="1.39" allow="pedestrian" oneway="1" width="2.00"/>
    <type id="highway.step" priority="1" numLanes="1" speed="1.39" allow="pedestrian" oneway="1" width="2.00"/>
    <type id="highway.steps" priority="1" numLanes="1" speed="1.39" allow="pedestrian" oneway="1" width="2.00"/>
    <type id="highway.tertiary" priority="6" numLanes="1" speed="22.22" disallow="tram rail_urban rail rail_electric ship" oneway="0"/>
    <type id="highway.tertiary_link" priority="5" numLanes="1" speed="22.22" disallow="tram rail_urban rail rail_electric ship" oneway="0"/>
    <type id="highway.track" priority="1" numLanes="1" speed="5.56" disallow="tram rail_urban rail rail_electric ship" oneway="0"/>
    <type id="highway.trunk" priority="11" numLanes="2" speed="27.78" disallow="tram rail_urban rail rail_electric bicycle pedestrian ship" oneway="0"/>
    <type id="highway.trunk_link" priority="10" numLanes="1" speed="22.22" disallow="tram rail_urban rail rail_electric bicycle pedestrian ship" oneway="0"/>
    <type id="highway.unclassified" priority="5" numLanes="1" speed="13.89" disallow="tram rail_urban rail rail_electric ship" oneway="0"/>
    <type id="highway.unsurfaced" priority="1" numLanes="1" speed="8.33" disallow="tram rail_urban rail rail_electric ship" oneway="0"/>
    <type id="railway.light_rail" priority="15" numLanes="1" speed="27.78" allow="rail_urban" oneway="1"/>
    <type id="railway.preserved" priority="15" numLanes="1" speed="27.78" allow="rail" oneway="1"/>
    <type id="railway.rail" priority="15" numLanes="1" speed="83.33" allow="rail rail_electric" oneway="1"/>
    <type id="railway.subway" priority="15" numLanes="1" speed="27.78" allow="rail_urban" oneway="1"/>
    <type id="railway.tram" priority="15" numLanes="1" speed="13.89" allow="tram" oneway="1"/>

    <edge id=":11060852_0" function="internal">
        <lane id=":11060852_0_0" index="0" disallow="tram rail_urban rail rail_electric bicycle pedestrian ship" speed="13.41" length="26.87" shape="369.51,1626.40 370.43,1618.06 371.97,1612.02 373.89,1606.67 375.96,1600.44"/>
    </edge>
    <edge id=":11060852_1" function="internal">
        <lane id=":11060852_1_0" index="0" disallow="tram rail_urban rail rail_electric bicycle pedestrian ship" speed="13.41" length="27.59" shape="366.32,1626.23 367.26,1617.63 368.84,1611.36 370.80,1605.85 372.88,1599.56"/>
    </edge>
    <edge id=":11060852_2" function="internal">
        <lane id=":11060852_2_0" index="0" disallow="tram rail_urban rail rail_electric bicycle pedestrian ship" speed="13.41" length="27.40" shape="366.32,1626.23 368.78,1598.91"/>
        <lane id=":11060852_2_1" index="1" disallow="tram rail_urban rail rail_electric bicycle pedestrian ship" speed="13.41" length="27.40" shape="363.12,1626.06 365.58,1598.81"/>
    </edge>
    <edge id=":11130382_0" function="internal">
        <lane id=":11130382_0_0" index="0" disallow="tram rail_urban rail rail_electric bicycle pedestrian ship" speed="13.65" length="15.27" shape="359.64,1454.96 357.98,1459.48 356.11,1462.69 353.86,1465.07 351.04,1467.09"/>
    </edge>
    <edge id=":11130382_1" function="internal">
        <lane id=":11130382_1_0" index="0" speed="13.89" length="15.16" shape="359.64,1454.96 356.09,1469.74"/>
        <lane id=":11130382_1_1" index="1" speed="13.89" length="15.16" shape="362.70,1455.89 359.18,1470.59"/>
    </edge>
    <edge id=":2014156889_0" function="internal">
        <lane id=":2014156889_0_0" index="0" disallow="tram rail_urban rail rail_electric bicycle pedestrian ship" speed="13.41" length="0.28" shape="459.17,1148.67 459.17,1148.92"/>
        <lane id=":2014156889_0_1" index="1" disallow="tram rail_urban rail rail_electric bicycle pedestrian ship" speed="13.41" length="0.28" shape="462.36,1148.57 462.37,1148.88"/>
    </edge>
    <edge id=":2140472412_0" function="internal">
        <lane id=":2140472412_0_0" index="0" speed="13.65" length="3.22" shape="440.21,1309.25 440.72,1308.37 441.08,1307.77 441.40,1307.15 441.79,1306.21"/>
        <lane id=":2140472412_0_1" index="1" speed="13.65" length="3.22" shape="437.39,1307.75 437.83,1306.97 438.16,1306.45 438.45,1305.92 438.79,1305.09"/>
    </edge>
    <edge id=":2140482757_0" function="internal">
        <lane id=":2140482757_0_0" index="0" disallow="tram rail_urban rail rail_electric bicycle pedestrian ship" speed="13.41" length="3.30" shape="457.93,1109.98 457.97,1110.71 457.99,1111.20 457.98,1111.70 457.95,1112.43"/>
        <lane id=":2140482757_0_1" index="1" disallow="tram rail_urban rail rail_electric bicycle pedestrian ship" speed="13.41" length="3.30" shape="457.93,1109.98 461.15,1112.58"/>
    </edge>
    <edge id=":2140482757_2" function="internal">
        <lane id=":2140482757_2_0" index="0" disallow="tram rail_urban rail rail_electric bicycle pedestrian ship" speed="13.41" length="2.64" shape="457.93,1109.98 458.05,1112.44"/>
        <lane id=":2140482757_2_1" index="1" disallow="tram rail_urban rail rail_electric bicycle pedestrian ship" speed="13.41" length="2.64" shape="461.12,1109.78 461.25,1112.59"/>
    </edge>
    <edge id=":2140514378_0" function="internal">
        <lane id=":2140514378_0_0" index="0" disallow="tram rail_urban rail rail_electric bicycle pedestrian ship" speed="13.41" length="0.27" shape="391.99,1543.25 392.07,1542.96"/>
        <lane id=":2140514378_0_1" index="1" disallow="tram rail_urban rail rail_electric bicycle pedestrian ship" speed="13.41" length="0.27" shape="388.90,1542.42 388.96,1542.21"/>
    </edge>
    <edge id=":2142198200_0" function="internal">
        <lane id=":2142198200_0_0" index="0" disallow="tram rail_urban rail rail_electric bicycle pedestrian ship" speed="13.41" length="0.23" shape="370.89,1536.01 370.89,1535.72"/>
        <lane id=":2142198200_0_1" index="1" disallow="tram rail_urban rail rail_electric bicycle pedestrian ship" speed="13.41" length="0.23" shape="367.69,1535.90 367.69,1535.73"/>
    </edge>
    <edge id=":2464441436_0" function="internal">
        <lane id=":2464441436_0_0" index="0" disallow="tram rail_urban rail rail_electric bicycle pedestrian ship" speed="13.41" length="0.29" shape="386.84,1562.41 386.92,1562.11"/>
        <lane id=":2464441436_0_1" index="1" disallow="tram rail_urban rail rail_electric bicycle pedestrian ship" speed="13.41" length="0.29" shape="383.76,1561.53 383.83,1561.28"/>
    </edge>
    <edge id=":262374856_0" function="internal">
        <lane id=":262374856_0_0" index="0" disallow="tram rail_urban rail rail_electric ship" speed="13.41" length="0.49" shape="225.23,1207.64 225.11,1208.20"/>
        <lane id=":262374856_0_1" index="1" disallow="tram rail_urban rail rail_electric ship" speed="13.41" length="0.49" shape="228.34,1208.37 228.26,1208.77"/>
    </edge>
    <edge id=":262374856_2" function="internal">
        <lane id=":262374856_2_0" index="0" disallow="tram rail_urban rail rail_electric ship" speed="13.41" length="0.17" shape="234.55,1209.92 234.57,1209.84"/>
        <lane id=":262374856_2_1" index="1" disallow="tram rail_urban rail rail_electric ship" speed="13.41" length="0.17" shape="231.40,1209.35 231.45,1209.11"/>
    </edge>
    <edge id=":440394724_0" function="internal">
        <lane id=":440394724_0_0" index="0" disallow="tram rail_urban rail rail_electric bicycle pedestrian ship" speed="13.41" length="9.43" shape="311.23,1420.52 312.08,1418.10 312.86,1416.50 313.98,1415.11 315.82,1413.32"/>
        <lane id=":440394724_0_1" index="1" disallow="tram rail_urban rail rail_electric bicycle pedestrian ship" speed="13.41" length="9.43" shape="311.23,1420.52 311.75,1417.54 311.66,1415.27 311.96,1413.24 313.62,1410.99"/>
    </edge>
    <edge id=":440395986_0" function="internal">
        <lane id=":440395986_0_0" index="0" disallow="tram rail_urban rail rail_electric bicycle pedestrian ship" speed="13.41" length="0.27" shape="656.49,1442.24 656.79,1442.33"/>
        <lane id=":440395986_0_1" index="1" disallow="tram rail_urban rail rail_electric bicycle pedestrian ship" speed="13.41" length="0.27" shape="657.55,1439.21 657.77,1439.29"/>
    </edge>
    <edge id=":440396065_0" function="internal">
        <lane id=":440396065_0_0" index="0" disallow="tram rail_urban rail rail_electric bicycle pedestrian ship" speed="11.49" length="14.11" shape="340.83,1389.76 344.85,1386.14 348.09,1383.60 350.55,1382.14 352.24,1381.75"/>
    </edge>
    <edge id=":440396065_1" function="internal">
        <lane id=":440396065_1_0" index="0" disallow="tram rail_urban rail rail_electric bicycle pedestrian ship" speed="12.52" length="16.84" shape="338.64,1387.43 343.22,1383.38 347.08,1380.55 350.20,1378.95 352.60,1378.57"/>
    </edge>
    <edge id=":440396065_2" function="internal">
        <lane id=":440396065_2_0" index="0" disallow="tram rail_urban rail rail_electric bicycle pedestrian ship" speed="13.65" length="14.45" shape="337.54,1382.94 341.80,1383.49 344.80,1382.78 347.85,1381.86 352.24,1381.75"/>
        <lane id=":440396065_2_1" index="1" disallow="tram rail_urban rail rail_electric bicycle pedestrian ship" speed="13.65" length="14.45" shape="338.42,1379.86 342.53,1380.37 345.43,1379.64 348.36,1378.70 352.60,1378.57"/>
        <lane id=":440396065_2_2" index="2" disallow="tram rail_urban rail rail_electric bicycle pedestrian ship" speed="13.65" length="14.45" shape="339.29,1376.78 343.26,1377.25 346.05,1376.50 348.88,1375.54 352.96,1375.39"/>
    </edge>
    <edge id=":440399329_0" function="internal">
        <lane id=":440399329_0_0" index="0" speed="13.65" length="3.38" shape="377.29,1399.40 376.70,1400.35 376.26,1400.98 375.90,1401.65 375.53,1402.69"/>
        <lane id=":440399329_0_1" index="1" speed="13.65" length="3.38" shape="380.06,1401.01 379.57,1401.76 379.21,1402.26 378.90,1402.79 378.59,1403.62"/>
    </edge>
    <edge id=":440399362_0" function="internal">
        <lane id=":440399362_0_0" index="0" disallow="tram rail_urban rail rail_electric bicycle pedestrian ship" speed="13.41" length="0.32" shape="394.32,1393.29 394.33,1393.25 394.35,1393.22 394.36,1393.19 394.39,1393.15"/>
        <lane id=":440399362_0_1" index="1" disallow="tram rail_urban rail rail_electric bicycle pedestrian ship" speed="13.41" length="0.32" shape="391.38,1392.02 391.43,1391.89 391.48,1391.80 391.52,1391.72 391.59,1391.59"/>
    </edge>
    <edge id=":440400209_0" function="internal">
        <lane id=":440400209_0_0" index="0" speed="13.65" length="9.56" shape="333.95,1325.76 331.30,1326.38 329.48,1326.86 327.65,1327.12 324.96,1327.07"/>
        <lane id=":440400209_0_1" index="1" speed="13.65" length="9.56" shape="334.56,1328.91 331.67,1329.57 329.68,1330.07 327.67,1330.33 324.74,1330.26"/>
    </edge>
    <edge id=":440400209_2" function="internal">
        <lane id=":440400209_2_0" index="0" speed="13.89" length="10.81" shape="334.30,1332.76 331.42,1331.18 329.73,1329.40 327.99,1327.87 324.96,1327.07"/>
        <lane id=":440400209_2_1" index="1" speed="13.89" length="10.81" shape="333.27,1335.79 330.62,1334.29 329.10,1332.54 327.53,1331.04 324.74,1330.26"/>
    </edge>
    <edge id=":440403197_0" function="internal">
        <lane id=":440403197_0_0" index="0" disallow="tram rail_urban rail rail_electric bicycle pedestrian ship" speed="13.41" length="2.83" shape="418.07,1435.16 418.85,1432.44"/>
    </edge>
    <edge id=":440403197_1" function="internal">
        <lane id=":440403197_1_0" index="0" disallow="tram rail_urban rail rail_electric bicycle pedestrian ship" speed="13.41" length="4.34" shape="418.07,1435.16 415.81,1431.46"/>
    </edge>
    <edge id=":440403197_2" function="internal">
        <lane id=":440403197_2_0" index="0" disallow="tram rail_urban rail rail_electric bicycle pedestrian ship" speed="13.41" length="2.97" shape="418.07,1435.16 418.66,1432.38"/>
        <lane id=":440403197_2_1" index="1" disallow="tram rail_urban rail rail_electric bicycle pedestrian ship" speed="13.41" length="2.97" shape="414.96,1434.41 415.58,1431.38"/>
    </edge>
    <edge id=":440827486_0" function="internal">
        <lane id=":440827486_0_0" index="0" disallow="tram rail_urban rail rail_electric ship" speed="13.41" length="0.11" shape="219.95,1236.47 219.97,1236.40"/>
        <lane id=":440827486_0_1" index="1" disallow="tram rail_urban rail rail_electric ship" speed="13.41" length="0.11" shape="223.10,1237.05 223.08,1237.16"/>
    </edge>
    <edge id=":440827486_2" function="internal">
        <lane id=":440827486_2_0" index="0" disallow="tram rail_urban rail rail_electric ship" speed="13.41" length="0.39" shape="229.29,1238.67 229.39,1238.20"/>
        <lane id=":440827486_2_1" index="1" disallow="tram rail_urban rail rail_electric ship" speed="13.41" length="0.39" shape="226.18,1237.91 226.24,1237.62"/>
    </edge>
    <edge id=":440828223_0" function="internal">
        <lane id=":440828223_0_0" index="0" disallow="tram rail_urban rail rail_electric ship" speed="13.41" length="0.10" shape="221.06,1278.66 221.08,1278.57"/>
        <lane id=":440828223_0_1" index="1" disallow="tram rail_urban rail rail_electric ship" speed="13.41" length="0.10" shape="217.96,1277.84 217.94,1277.93"/>
    </edge>
    <edge id=":5344200991_0" function="internal">
        <lane id=":5344200991_0_0" index="0" disallow="tram rail_urban rail rail_electric bicycle pedestrian ship" speed="13.41" length="0.29" shape="106.47,1315.92 106.19,1315.88"/>
        <lane id=":5344200991_0_1" index="1" disallow="tram rail_urban rail rail_electric bicycle pedestrian ship" speed="13.41" length="0.29" shape="105.97,1319.08 105.68,1319.04"/>
    </edge>
    <edge id=":5344200991_2" function="internal">
        <lane id=":5344200991_2_0" index="0" disallow="tram rail_urban rail rail_electric bicycle pedestrian ship" speed="13.41" length="0.31" shape="104.68,1325.36 104.99,1325.41"/>
        <lane id=":5344200991_2_1" index="1" disallow="tram rail_urban rail rail_electric bicycle pedestrian ship" speed="13.41" length="0.31" shape="105.18,1322.20 105.48,1322.24"/>
    </edge>
    <edge id=":A12North_0" function="internal">
        <lane id=":A12North_0_0" index="0" speed="10.47" length="24.48" shape="296.70,1355.71 291.37,1357.11 287.62,1360.64 285.46,1366.28 284.90,1374.04"/>
    </edge>
    <edge id=":A12North_1" function="internal">
        <lane id=":A12North_1_0" index="0" speed="9.21" length="18.71" shape="295.84,1358.97 292.31,1360.07 289.84,1362.94 288.44,1367.57 288.09,1373.96"/>
    </edge>
    <edge id=":A12North_2" function="internal">
        <lane id=":A12North_2_0" index="0" speed="8.39" length="12.04" shape="280.71,1363.44 282.45,1364.52 283.73,1366.65 284.54,1369.82 284.90,1374.04"/>
    </edge>
    <edge id=":A12North_3" function="internal">
        <lane id=":A12North_3_0" index="0" speed="9.62" length="16.06" shape="281.59,1360.36 284.32,1361.88 286.32,1364.65 287.57,1368.68 288.09,1373.96"/>
    </edge>
    <edge id=":A12North_4" function="internal">
        <lane id=":A12North_4_0" index="0" speed="13.65" length="15.35" shape="281.59,1360.36 285.37,1362.49 287.22,1365.31 289.06,1368.12 292.85,1370.24"/>
        <lane id=":A12North_4_1" index="1" speed="13.65" length="15.35" shape="282.48,1357.28 286.24,1359.41 288.07,1362.22 289.90,1365.03 293.67,1367.14"/>
        <lane id=":A12North_4_2" index="2" speed="13.65" length="15.35" shape="283.36,1354.21 287.11,1356.33 288.92,1359.14 290.74,1361.95 294.49,1364.05"/>
    </edge>
    <edge id=":A12NorthMerge_0" function="internal">
        <lane id=":A12NorthMerge_0_0" index="0" speed="11.93" length="12.87" shape="347.77,1582.66 349.70,1585.61 351.25,1587.70 352.06,1589.89 351.75,1593.13"/>
        <lane id=":A12NorthMerge_0_1" index="1" speed="13.01" length="12.87" shape="350.60,1581.15 352.82,1584.72 354.51,1587.29 355.31,1589.97 354.86,1593.88"/>
    </edge>
    <edge id=":A12NorthMerge_2" function="internal">
        <lane id=":A12NorthMerge_2_0" index="0" speed="13.89" length="14.31" shape="354.27,1580.15 354.70,1584.26 355.27,1587.09 355.49,1589.89 354.86,1593.88"/>
        <lane id=":A12NorthMerge_2_1" index="1" speed="13.89" length="14.31" shape="357.47,1580.03 357.90,1584.40 358.47,1587.41 358.66,1590.39 357.97,1594.64"/>
    </edge>
    <edge id=":A12SouthMerge1_0" function="internal">
        <lane id=":A12SouthMerge1_0_0" index="0" disallow="tram rail_urban rail rail_electric bicycle pedestrian ship" speed="13.65" length="23.36" shape="377.79,1487.64 375.81,1481.51 373.96,1476.74 372.77,1471.91 372.79,1465.64"/>
        <lane id=":A12SouthMerge1_0_1" index="1" disallow="tram rail_urban rail rail_electric bicycle pedestrian ship" speed="13.65" length="23.36" shape="374.70,1488.44 372.70,1482.13 370.82,1476.96 369.60,1471.75 369.61,1465.30"/>
    </edge>
    <edge id=":A12SouthMerge1_2" function="internal">
        <lane id=":A12SouthMerge1_2_0" index="0" disallow="tram rail_urban rail rail_electric bicycle pedestrian ship" speed="13.41" length="23.34" shape="371.11,1488.81 372.79,1465.64"/>
        <lane id=":A12SouthMerge1_2_1" index="1" disallow="tram rail_urban rail rail_electric bicycle pedestrian ship" speed="13.41" length="23.34" shape="367.92,1488.68 369.61,1465.30"/>
    </edge>
    <edge id=":A12SouthMerge2_0" function="internal">
        <lane id=":A12SouthMerge2_0_0" index="0" speed="13.89" length="24.63" shape="493.69,1144.51 492.69,1137.93 491.52,1132.49 491.19,1127.17 492.70,1120.97"/>
        <lane id=":A12SouthMerge2_0_1" index="1" speed="13.89" length="24.63" shape="490.50,1144.75 489.54,1137.95 488.44,1132.02 488.18,1126.21 489.73,1119.79"/>
    </edge>
    <edge id=":A12SouthMerge2_2" function="internal">
        <lane id=":A12SouthMerge2_2_0" index="0" speed="13.89" length="24.51" shape="486.90,1144.49 488.23,1138.01 489.25,1132.56 490.55,1127.20 492.70,1120.97"/>
        <lane id=":A12SouthMerge2_2_1" index="1" speed="13.89" length="24.51" shape="483.78,1143.77 485.13,1137.22 486.20,1131.61 487.55,1126.08 489.73,1119.79"/>
    </edge>
    <edge id=":Main_0" function="internal">
        <lane id=":Main_0_0" index="0" disallow="tram rail_urban rail rail_electric bicycle pedestrian ship" speed="13.41" length="56.43" shape="452.06,1363.02 439.93,1360.24 426.13,1356.77 411.35,1353.55 396.30,1351.48"/>
        <lane id=":Main_0_1" index="1" disallow="tram rail_urban rail rail_electric bicycle pedestrian ship" speed="13.41" length="56.43" shape="451.43,1366.16 439.36,1363.38 425.69,1359.94 411.04,1356.73 396.05,1354.67"/>
        <lane id=":Main_0_2" index="2" disallow="tram rail_urban rail rail_electric bicycle pedestrian ship" speed="13.41" length="56.43" shape="450.80,1369.29 438.80,1366.53 425.25,1363.10 410.73,1359.92 395.79,1357.87"/>
        <lane id=":Main_0_3" index="3" disallow="tram rail_urban rail rail_electric bicycle pedestrian ship" speed="13.41" length="56.43" shape="450.80,1369.29 438.76,1367.03 425.12,1364.70 410.52,1362.61 395.54,1361.06"/>
    </edge>
    <edge id=":Main_4" function="internal">
        <lane id=":Main_4_0" index="0" disallow="tram rail_urban rail rail_electric bicycle pedestrian ship" speed="10.91" length="24.56" shape="432.59,1390.62 435.81,1383.37 439.70,1378.51 444.25,1376.03 449.47,1375.95"/>
    </edge>
    <edge id=":Main_5" function="internal">
        <lane id=":Main_5_0" index="0" disallow="tram rail_urban rail rail_electric bicycle pedestrian ship" speed="11.95" length="29.64" shape="429.41,1390.06 433.26,1381.47 438.00,1375.74 443.61,1372.85 450.09,1372.81"/>
    </edge>
    <edge id=":Main_6" function="internal">
        <lane id=":Main_6_0" index="0" disallow="tram rail_urban rail rail_electric bicycle pedestrian ship" speed="13.41" length="56.53" shape="426.30,1389.50 426.77,1373.95 421.93,1362.42 411.77,1354.94 396.30,1351.48"/>
    </edge>
    <edge id=":Main_7" function="internal">
        <lane id=":Main_7_0" index="0" disallow="tram rail_urban rail rail_electric bicycle pedestrian ship" speed="13.41" length="53.79" shape="426.30,1389.50 426.54,1375.33 421.58,1364.80 411.42,1357.92 396.05,1354.67"/>
    </edge>
    <edge id=":Main_8" function="internal">
        <lane id=":Main_8_0" index="0" disallow="tram rail_urban rail rail_electric bicycle pedestrian ship" speed="13.41" length="48.26" shape="423.14,1388.94 423.34,1376.31 418.85,1366.92 409.66,1360.77 395.79,1357.87"/>
    </edge>
    <edge id=":Main_9" function="internal">
        <lane id=":Main_9_0" index="0" disallow="tram rail_urban rail rail_electric bicycle pedestrian ship" speed="13.41" length="45.59" shape="423.14,1388.94 423.11,1377.69 418.50,1369.30 409.31,1363.75 395.54,1361.06"/>
    </edge>
    <edge id=":Main_10" function="internal">
        <lane id=":Main_10_0" index="0" disallow="tram rail_urban rail rail_electric bicycle pedestrian ship" speed="10.86" length="17.03" shape="393.53,1386.48 398.66,1387.48 402.70,1389.17 405.66,1391.57 407.54,1394.66"/>
    </edge>
    <edge id=":Main_11" function="internal">
        <lane id=":Main_11_0" index="0" disallow="tram rail_urban rail rail_electric bicycle pedestrian ship" speed="11.91" length="20.62" shape="393.78,1383.29 399.84,1384.50 404.65,1386.61 408.21,1389.61 410.52,1393.50"/>
    </edge>
    <edge id=":Main_12" function="internal">
        <lane id=":Main_12_0" index="0" disallow="tram rail_urban rail rail_electric bicycle pedestrian ship" speed="13.41" length="56.48" shape="393.78,1383.29 407.39,1382.59 423.53,1379.52 438.72,1376.51 449.47,1375.95"/>
        <lane id=":Main_12_1" index="1" disallow="tram rail_urban rail rail_electric bicycle pedestrian ship" speed="13.41" length="56.48" shape="394.03,1380.10 407.70,1379.40 423.98,1376.36 439.29,1373.36 450.09,1372.81"/>
    </edge>
    <edge id=":cluster_2070861921_2070861924_0" function="internal">
        <lane id=":cluster_2070861921_2070861924_0_0" index="0" disallow="tram rail_urban rail rail_electric bicycle pedestrian ship" speed="13.41" length="0.30" shape="661.55,1424.87 661.27,1424.78"/>
        <lane id=":cluster_2070861921_2070861924_0_1" index="1" disallow="tram rail_urban rail rail_electric bicycle pedestrian ship" speed="13.41" length="0.30" shape="660.50,1427.90 660.22,1427.80"/>
        <lane id=":cluster_2070861921_2070861924_0_2" index="2" disallow="tram rail_urban rail rail_electric bicycle pedestrian ship" speed="13.41" length="0.30" shape="659.46,1430.92 659.17,1430.82"/>
    </edge>
    <edge id=":cluster_2140465345_2140484926_440400188_0" function="internal">
        <lane id=":cluster_2140465345_2140484926_440400188_0_0" index="0" speed="10.67" length="18.14" shape="524.34,1377.05 517.76,1374.53 513.02,1372.19 510.14,1370.05 509.10,1368.10"/>
    </edge>
    <edge id=":cluster_2140465345_2140484926_440400188_1" function="internal">
        <lane id=":cluster_2140465345_2140484926_440400188_1_0" index="0" speed="11.35" length="20.63" shape="524.34,1377.05 516.33,1374.11 510.59,1371.67 507.11,1369.73 505.90,1368.29"/>
    </edge>
    <edge id=":cluster_2140465345_2140484926_440400188_2" function="internal">
        <lane id=":cluster_2140465345_2140484926_440400188_2_0" index="0" disallow="tram rail_urban rail rail_electric bicycle pedestrian ship" speed="13.41" length="22.78" shape="524.34,1377.05 517.77,1375.05 513.13,1374.22 508.40,1373.70 501.59,1372.61"/>
        <lane id=":cluster_2140465345_2140484926_440400188_2_1" index="1" disallow="tram rail_urban rail rail_electric bicycle pedestrian ship" speed="13.41" length="22.78" shape="523.29,1380.07 516.85,1378.12 512.29,1377.32 507.66,1376.81 500.98,1375.75"/>
        <lane id=":cluster_2140465345_2140484926_440400188_2_2" index="2" disallow="tram rail_urban rail rail_electric bicycle pedestrian ship" speed="13.41" length="22.78" shape="522.24,1383.09 515.92,1381.19 511.46,1380.41 506.92,1379.93 500.37,1378.89"/>
    </edge>
    <edge id=":gneJ15_0" function="internal">
        <lane id=":gneJ15_0_0" index="0" speed="13.65" length="24.74" shape="391.48,1351.10 383.95,1350.06 378.63,1348.48 373.84,1346.48 367.88,1344.17"/>
    </edge>
    <edge id=":gneJ15_1" function="internal">
        <lane id=":gneJ15_1_0" index="0" speed="13.65" length="25.53" shape="391.23,1354.29 383.41,1353.22 377.85,1351.58 372.87,1349.53 366.85,1347.20"/>
    </edge>
    <edge id=":gneJ15_2" function="internal">
        <lane id=":gneJ15_2_0" index="0" speed="13.65" length="25.34" shape="390.98,1357.48 383.17,1356.10 377.60,1354.07 372.52,1352.33 366.22,1351.83"/>
        <lane id=":gneJ15_2_1" index="1" speed="13.65" length="25.34" shape="390.73,1360.67 383.08,1359.30 377.64,1357.27 372.66,1355.53 366.40,1355.02"/>
    </edge>
    <edge id=":gneJ17_0" function="internal">
        <lane id=":gneJ17_0_0" index="0" disallow="tram rail_urban rail rail_electric bicycle pedestrian ship" speed="13.65" length="2.43" shape="326.22,1698.13 326.12,1698.62 326.07,1698.96 325.98,1699.29 325.78,1699.73"/>
        <lane id=":gneJ17_0_1" index="1" disallow="tram rail_urban rail rail_electric bicycle pedestrian ship" speed="13.65" length="2.43" shape="329.33,1698.89 329.17,1699.60 329.08,1700.08 328.93,1700.55 328.62,1701.20"/>
        <lane id=":gneJ17_0_2" index="2" disallow="tram rail_urban rail rail_electric bicycle pedestrian ship" speed="13.65" length="2.43" shape="332.44,1699.65 332.23,1700.57 332.08,1701.21 331.87,1701.82 331.47,1702.67"/>
    </edge>
    <edge id=":gneJ20_0" function="internal">
        <lane id=":gneJ20_0_0" index="0" speed="13.89" length="0.20" shape="307.56,1507.41 307.61,1507.50"/>
        <lane id=":gneJ20_0_1" index="1" speed="13.89" length="0.20" shape="310.28,1505.73 310.43,1505.99"/>
    </edge>
    <edge id=":gneJ21_0" function="internal">
        <lane id=":gneJ21_0_0" index="0" speed="13.65" length="3.26" shape="400.99,1441.06 400.67,1442.05 400.43,1442.73 400.24,1443.42 400.08,1444.45"/>
        <lane id=":gneJ21_0_1" index="1" speed="13.65" length="3.26" shape="404.06,1441.94 403.79,1442.79 403.57,1443.37 403.40,1443.95 403.26,1444.83"/>
    </edge>
    <edge id=":gneJ22_0" function="internal">