<?xml version="1.0" encoding="UTF-8"?>

<!-- generated on 03/18/19 21:16:26 by Eclipse SUMO netedit Version 1.0.1
<configuration xmlns:xsi="http://www.w3.org/2001/XMLSchema-instance" xsi:noNamespaceSchemaLocation="http://sumo.dlr.de/xsd/netconvertConfiguration.xsd">

    <input>
        <sumo-net-file value="C:\Users\Sam\OneDrive\_University\Year%204\Individual%20Project\SUMOIntersectionResearch\maps\BlackwellTunnelNorthApproach\BlackwellTunnelNorthApproach.net.xml"/>
    </input>

    <output>
        <output-file value="C:\Users\Sam\OneDrive\_University\Year%204\Individual%20Project\SUMOIntersectionResearch\maps\BlackwellTunnelNorthApproach_no_TLS\BlackwellTunnelNorthApproach_no_TLS.net.xml"/>
        <output.street-names value="true"/>
    </output>

    <processing>
        <offset.disable-normalization value="true"/>
        <lefthand value="true"/>
    </processing>

    <junctions>
        <no-turnarounds value="true"/>
        <junctions.corner-detail value="5"/>
        <junctions.limit-turn-speed value="5.5"/>
        <rectangular-lane-cut value="false"/>
    </junctions>

    <pedestrian>
        <walkingareas value="false"/>
    </pedestrian>

</configuration>
-->

<net version="1.0" junctionCornerDetail="5" lefthand="true" limitTurnSpeed="5.50" xmlns:xsi="http://www.w3.org/2001/XMLSchema-instance" xsi:noNamespaceSchemaLocation="http://sumo.dlr.de/xsd/net_file.xsd">

    <location netOffset="-707223.42,-5709593.93" convBoundary="77.38,0.00,1124.15,1767.74" origBoundary="-0.013416,51.499038,0.003102,51.515108" projParameter="+proj=utm +zone=30 +ellps=WGS84 +datum=WGS84 +units=m +no_defs"/>

    <type id="highway.bridleway" priority="1" numLanes="1" speed="2.78" allow="pedestrian" oneway="1" width="2.00"/>
    <type id="highway.bus_guideway" priority="1" numLanes="1" speed="27.78" allow="bus" oneway="1"/>
    <type id="highway.cycleway" priority="1" numLanes="1" speed="8.33" allow="bicycle" oneway="0" width="1.00"/>
    <type id="highway.footway" priority="1" numLanes="1" speed="2.78" allow="pedestrian" oneway="1" width="2.00"/>
    <type id="highway.ford" priority="1" numLanes="1" speed="2.78" allow="army" oneway="0"/>
    <type id="highway.living_street" priority="3" numLanes="1" speed="2.78" disallow="tram rail_urban rail rail_electric ship" oneway="0"/>
    <type id="highway.motorway" priority="13" numLanes="2" speed="44.44" allow="private emergency authority army vip passenger hov taxi bus coach delivery truck trailer motorcycle evehicle custom1 custom2" oneway="1"/>
    <type id="highway.motorway_link" priority="12" numLanes="1" speed="22.22" allow="private emergency authority army vip passenger hov taxi bus coach delivery truck trailer motorcycle evehicle custom1 custom2" oneway="1"/>
    <type id="highway.path" priority="1" numLanes="1" speed="2.78" allow="bicycle pedestrian" oneway="1" width="2.00"/>
    <type id="highway.pedestrian" priority="1" numLanes="1" speed="2.78" allow="pedestrian" oneway="1" width="2.00"/>
    <type id="highway.primary" priority="9" numLanes="2" speed="27.78" disallow="tram rail_urban rail rail_electric ship" oneway="0"/>
    <type id="highway.primary_link" priority="8" numLanes="1" speed="22.22" disallow="tram rail_urban rail rail_electric ship" oneway="0"/>
    <type id="highway.raceway" priority="14" numLanes="2" speed="83.33" allow="vip" oneway="0"/>
    <type id="highway.residential" priority="4" numLanes="1" speed="13.89" disallow="tram rail_urban rail rail_electric ship" oneway="0"/>
    <type id="highway.secondary" priority="7" numLanes="2" speed="27.78" disallow="tram rail_urban rail rail_electric ship" oneway="0"/>
    <type id="highway.secondary_link" priority="6" numLanes="1" speed="22.22" disallow="tram rail_urban rail rail_electric ship" oneway="0"/>
    <type id="highway.service" priority="2" numLanes="1" speed="5.56" allow="delivery bicycle pedestrian" oneway="0"/>
    <type id="highway.stairs" priority="1" numLanes="1" speed="1.39" allow="pedestrian" oneway="1" width="2.00"/>
    <type id="highway.step" priority="1" numLanes="1" speed="1.39" allow="pedestrian" oneway="1" width="2.00"/>
    <type id="highway.steps" priority="1" numLanes="1" speed="1.39" allow="pedestrian" oneway="1" width="2.00"/>
    <type id="highway.tertiary" priority="6" numLanes="1" speed="22.22" disallow="tram rail_urban rail rail_electric ship" oneway="0"/>
    <type id="highway.tertiary_link" priority="5" numLanes="1" speed="22.22" disallow="tram rail_urban rail rail_electric ship" oneway="0"/>
    <type id="highway.track" priority="1" numLanes="1" speed="5.56" disallow="tram rail_urban rail rail_electric ship" oneway="0"/>
    <type id="highway.trunk" priority="11" numLanes="2" speed="27.78" disallow="tram rail_urban rail rail_electric bicycle pedestrian ship" oneway="0"/>
    <type id="highway.trunk_link" priority="10" numLanes="1" speed="22.22" disallow="tram rail_urban rail rail_electric bicycle pedestrian ship" oneway="0"/>
    <type id="highway.unclassified" priority="5" numLanes="1" speed="13.89" disallow="tram rail_urban rail rail_electric ship" oneway="0"/>
    <type id="highway.unsurfaced" priority="1" numLanes="1" speed="8.33" disallow="tram rail_urban rail rail_electric ship" oneway="0"/>
    <type id="railway.light_rail" priority="15" numLanes="1" speed="27.78" allow="rail_urban" oneway="1"/>
    <type id="railway.preserved" priority="15" numLanes="1" speed="27.78" allow="rail" oneway="1"/>
    <type id="railway.rail" priority="15" numLanes="1" speed="83.33" allow="rail rail_electric" oneway="1"/>
    <type id="railway.subway" priority="15" numLanes="1" speed="27.78" allow="rail_urban" oneway="1"/>
    <type id="railway.tram" priority="15" numLanes="1" speed="13.89" allow="tram" oneway="1"/>

    <edge id=":11060852_0" function="internal">
        <lane id=":11060852_0_0" index="0" disallow="tram rail_urban rail rail_electric bicycle pedestrian ship" speed="13.41" length="26.87" shape="369.51,1626.40 370.43,1618.06 371.97,1612.02 373.89,1606.67 375.96,1600.44"/>
    </edge>
    <edge id=":11060852_1" function="internal">
        <lane id=":11060852_1_0" index="0" disallow="tram rail_urban rail rail_electric bicycle pedestrian ship" speed="13.41" length="27.59" shape="366.32,1626.23 367.26,1617.63 368.84,1611.36 370.80,1605.85 372.88,1599.56"/>
    </edge>
    <edge id=":11060852_2" function="internal">
        <lane id=":11060852_2_0" index="0" disallow="tram rail_urban rail rail_electric bicycle pedestrian ship" speed="13.41" length="27.40" shape="366.32,1626.23 368.78,1598.91"/>
        <lane id=":11060852_2_1" index="1" disallow="tram rail_urban rail rail_electric bicycle pedestrian ship" speed="13.41" length="27.40" shape="363.12,1626.06 365.58,1598.81"/>
    </edge>
    <edge id=":11130382_0" function="internal">
        <lane id=":11130382_0_0" index="0" disallow="tram rail_urban rail rail_electric bicycle pedestrian ship" speed="13.65" length="15.27" shape="359.64,1454.96 357.98,1459.48 356.11,1462.69 353.86,1465.07 351.04,1467.09"/>
    </edge>
    <edge id=":11130382_1" function="internal">
        <lane id=":11130382_1_0" index="0" speed="13.89" length="15.16" shape="359.64,1454.96 356.09,1469.74"/>
        <lane id=":11130382_1_1" index="1" speed="13.89" length="15.16" shape="362.70,1455.89 359.18,1470.59"/>
    </edge>
    <edge id=":2014156889_0" function="internal">
        <lane id=":2014156889_0_0" index="0" disallow="tram rail_urban rail rail_electric bicycle pedestrian ship" speed="13.41" length="0.28" shape="459.17,1148.67 459.17,1148.92"/>
        <lane id=":2014156889_0_1" index="1" disallow="tram rail_urban rail rail_electric bicycle pedestrian ship" speed="13.41" length="0.28" shape="462.36,1148.57 462.37,1148.88"/>
    </edge>
    <edge id=":2140472412_0" function="internal">
        <lane id=":2140472412_0_0" index="0" speed="13.65" length="3.35" shape="435.98,1317.17 436.53,1316.22 436.94,1315.58 437.27,1314.91 437.62,1313.88"/>
        <lane id=":2140472412_0_1" index="1" speed="13.65" length="3.35" shape="433.16,1315.67 433.62,1314.89 433.96,1314.38 434.25,1313.84 434.54,1313.01"/>
    </edge>
    <edge id=":2140482757_0" function="internal">
        <lane id=":2140482757_0_0" index="0" disallow="tram rail_urban rail rail_electric bicycle pedestrian ship" speed="13.41" length="3.30" shape="457.93,1109.98 457.97,1110.71 457.99,1111.20 457.98,1111.70 457.95,1112.43"/>
        <lane id=":2140482757_0_1" index="1" disallow="tram rail_urban rail rail_electric bicycle pedestrian ship" speed="13.41" length="3.30" shape="457.93,1109.98 461.15,1112.58"/>
    </edge>
    <edge id=":2140482757_2" function="internal">
        <lane id=":2140482757_2_0" index="0" disallow="tram rail_urban rail rail_electric bicycle pedestrian ship" speed="13.41" length="2.64" shape="457.93,1109.98 458.05,1112.44"/>
        <lane id=":2140482757_2_1" index="1" disallow="tram rail_urban rail rail_electric bicycle pedestrian ship" speed="13.41" length="2.64" shape="461.12,1109.78 461.25,1112.59"/>
    </edge>
    <edge id=":2140514378_0" function="internal">
        <lane id=":2140514378_0_0" index="0" disallow="tram rail_urban rail rail_electric bicycle pedestrian ship" speed="13.41" length="0.28" shape="391.99,1543.26 392.07,1542.96"/>
        <lane id=":2140514378_0_1" index="1" disallow="tram rail_urban rail rail_electric bicycle pedestrian ship" speed="13.41" length="0.28" shape="388.90,1542.43 388.96,1542.18"/>
    </edge>
    <edge id=":2142198200_0" function="internal">
        <lane id=":2142198200_0_0" index="0" disallow="tram rail_urban rail rail_electric bicycle pedestrian ship" speed="13.41" length="0.23" shape="370.89,1536.01 370.89,1535.72"/>
        <lane id=":2142198200_0_1" index="1" disallow="tram rail_urban rail rail_electric bicycle pedestrian ship" speed="13.41" length="0.23" shape="367.69,1535.90 367.69,1535.73"/>
    </edge>
    <edge id=":2464441436_0" function="internal">
        <lane id=":2464441436_0_0" index="0" disallow="tram rail_urban rail rail_electric bicycle pedestrian ship" speed="13.41" length="0.29" shape="386.84,1562.41 386.92,1562.11"/>
        <lane id=":2464441436_0_1" index="1" disallow="tram rail_urban rail rail_electric bicycle pedestrian ship" speed="13.41" length="0.29" shape="383.76,1561.53 383.83,1561.28"/>
    </edge>
    <edge id=":262374856_0" function="internal">
        <lane id=":262374856_0_0" index="0" disallow="tram rail_urban rail rail_electric ship" speed="13.41" length="0.49" shape="225.23,1207.64 225.11,1208.20"/>
        <lane id=":262374856_0_1" index="1" disallow="tram rail_urban rail rail_electric ship" speed="13.41" length="0.49" shape="228.34,1208.37 228.26,1208.77"/>
    </edge>
    <edge id=":262374856_2" function="internal">
        <lane id=":262374856_2_0" index="0" disallow="tram rail_urban rail rail_electric ship" speed="13.41" length="0.17" shape="234.55,1209.92 234.57,1209.84"/>
        <lane id=":262374856_2_1" index="1" disallow="tram rail_urban rail rail_electric ship" speed="13.41" length="0.17" shape="231.40,1209.35 231.45,1209.11"/>
    </edge>
    <edge id=":440394724_0" function="internal">
        <lane id=":440394724_0_0" index="0" disallow="tram rail_urban rail rail_electric bicycle pedestrian ship" speed="13.41" length="9.43" shape="311.23,1420.52 312.08,1418.10 312.86,1416.50 313.98,1415.11 315.82,1413.32"/>
        <lane id=":440394724_0_1" index="1" disallow="tram rail_urban rail rail_electric bicycle pedestrian ship" speed="13.41" length="9.43" shape="311.23,1420.52 311.75,1417.54 311.66,1415.27 311.96,1413.24 313.62,1410.99"/>
    </edge>
    <edge id=":440395986_0" function="internal">
        <lane id=":440395986_0_0" index="0" disallow="tram rail_urban rail rail_electric bicycle pedestrian ship" speed="13.41" length="0.27" shape="656.49,1442.24 656.79,1442.33"/>
        <lane id=":440395986_0_1" index="1" disallow="tram rail_urban rail rail_electric bicycle pedestrian ship" speed="13.41" length="0.27" shape="657.55,1439.21 657.77,1439.29"/>
    </edge>
    <edge id=":440396065_0" function="internal">
        <lane id=":440396065_0_0" index="0" disallow="tram rail_urban rail rail_electric bicycle pedestrian ship" speed="11.15" length="13.26" shape="341.46,1389.16 345.21,1385.81 348.25,1383.45 350.59,1382.10 352.24,1381.75"/>
    </edge>
    <edge id=":440396065_1" function="internal">
        <lane id=":440396065_1_0" index="0" disallow="tram rail_urban rail rail_electric bicycle pedestrian ship" speed="12.21" length="15.99" shape="339.27,1386.83 343.58,1383.04 347.24,1380.40 350.24,1378.91 352.60,1378.57"/>
    </edge>
    <edge id=":440396065_2" function="internal">
        <lane id=":440396065_2_0" index="0" disallow="tram rail_urban rail rail_electric bicycle pedestrian ship" speed="13.65" length="13.36" shape="338.35,1382.24 342.29,1383.09 345.14,1382.62 348.07,1381.84 352.24,1381.75"/>
        <lane id=":440396065_2_1" index="1" disallow="tram rail_urban rail rail_electric bicycle pedestrian ship" speed="13.65" length="13.36" shape="339.49,1379.25 343.21,1380.02 345.90,1379.50 348.66,1378.69 352.60,1378.57"/>
        <lane id=":440396065_2_2" index="2" disallow="tram rail_urban rail rail_electric bicycle pedestrian ship" speed="13.65" length="13.36" shape="340.63,1376.26 344.13,1376.95 346.66,1376.38 349.26,1375.54 352.96,1375.39"/>
    </edge>
    <edge id=":440398340_0" function="internal">
        <lane id=":440398340_0_0" index="0" disallow="tram rail_urban rail rail_electric bicycle pedestrian ship" speed="13.65" length="23.36" shape="377.79,1487.64 375.81,1481.51 373.96,1476.74 372.77,1471.91 372.79,1465.64"/>
        <lane id=":440398340_0_1" index="1" disallow="tram rail_urban rail rail_electric bicycle pedestrian ship" speed="13.65" length="23.36" shape="374.70,1488.44 372.70,1482.13 370.82,1476.96 369.60,1471.75 369.61,1465.30"/>
    </edge>
    <edge id=":440398340_2" function="internal">
        <lane id=":440398340_2_0" index="0" disallow="tram rail_urban rail rail_electric bicycle pedestrian ship" speed="13.41" length="23.34" shape="371.11,1488.81 372.79,1465.64"/>
        <lane id=":440398340_2_1" index="1" disallow="tram rail_urban rail rail_electric bicycle pedestrian ship" speed="13.41" length="23.34" shape="367.92,1488.68 369.61,1465.30"/>
    </edge>
    <edge id=":440399329_0" function="internal">
        <lane id=":440399329_0_0" index="0" speed="13.65" length="3.38" shape="377.29,1399.40 376.70,1400.35 376.26,1400.98 375.90,1401.65 375.53,1402.69"/>
        <lane id=":440399329_0_1" index="1" speed="13.65" length="3.38" shape="380.06,1401.01 379.57,1401.76 379.21,1402.26 378.90,1402.79 378.59,1403.62"/>
    </edge>
    <edge id=":440399362_0" function="internal">
        <lane id=":440399362_0_0" index="0" disallow="tram rail_urban rail rail_electric bicycle pedestrian ship" speed="13.41" length="0.32" shape="394.32,1393.29 394.33,1393.25 394.35,1393.22 394.36,1393.19 394.39,1393.15"/>
        <lane id=":440399362_0_1" index="1" disallow="tram rail_urban rail rail_electric bicycle pedestrian ship" speed="13.41" length="0.32" shape="391.38,1392.02 391.43,1391.89 391.48,1391.80 391.52,1391.72 391.59,1391.59"/>
    </edge>
    <edge id=":440400209_0" function="internal">
        <lane id=":440400209_0_0" index="0" speed="13.65" length="17.20" shape="330.18,1326.50 325.29,1327.22 321.89,1327.20 318.47,1326.77 313.51,1326.27"/>
        <lane id=":440400209_0_1" index="1" speed="13.65" length="17.20" shape="330.79,1329.64 325.66,1330.41 322.09,1330.41 318.50,1329.98 313.29,1329.46"/>
    </edge>
    <edge id=":440400209_2" function="internal">
        <lane id=":440400209_2_0" index="0" speed="13.89" length="17.93" shape="330.25,1333.60 325.47,1330.82 322.23,1328.64 318.82,1327.11 313.51,1326.27"/>
        <lane id=":440400209_2_1" index="1" speed="13.89" length="17.93" shape="328.82,1336.46 324.37,1333.84 321.38,1331.75 318.23,1330.27 313.29,1329.46"/>
    </edge>
    <edge id=":440403197_0" function="internal">
        <lane id=":440403197_0_0" index="0" disallow="tram rail_urban rail rail_electric bicycle pedestrian ship" speed="13.41" length="3.68" shape="404.02,1495.09 404.77,1492.21"/>
        <lane id=":440403197_0_1" index="1" disallow="tram rail_urban rail rail_electric bicycle pedestrian ship" speed="13.41" length="3.68" shape="404.02,1495.09 401.68,1491.38"/>
    </edge>
    <edge id=":440403197_2" function="internal">
        <lane id=":440403197_2_0" index="0" disallow="tram rail_urban rail rail_electric bicycle pedestrian ship" speed="13.41" length="3.01" shape="404.02,1495.09 404.69,1492.19"/>
        <lane id=":440403197_2_1" index="1" disallow="tram rail_urban rail rail_electric bicycle pedestrian ship" speed="13.41" length="3.01" shape="400.92,1494.32 401.60,1491.35"/>
    </edge>
    <edge id=":440827486_0" function="internal">
        <lane id=":440827486_0_0" index="0" disallow="tram rail_urban rail rail_electric ship" speed="13.41" length="0.10" shape="219.95,1236.48 219.97,1236.40"/>
        <lane id=":440827486_0_1" index="1" disallow="tram rail_urban rail rail_electric ship" speed="13.41" length="0.10" shape="223.10,1237.05 223.08,1237.16"/>
    </edge>
    <edge id=":440827486_2" function="internal">
        <lane id=":440827486_2_0" index="0" disallow="tram rail_urban rail rail_electric ship" speed="13.41" length="0.40" shape="229.29,1238.69 229.39,1238.20"/>
        <lane id=":440827486_2_1" index="1" disallow="tram rail_urban rail rail_electric ship" speed="13.41" length="0.40" shape="226.18,1237.92 226.24,1237.63"/>
    </edge>
    <edge id=":440828223_0" function="internal">
        <lane id=":440828223_0_0" index="0" disallow="tram rail_urban rail rail_electric ship" speed="13.41" length="0.25" shape="221.07,1278.64 221.10,1278.45"/>
        <lane id=":440828223_0_1" index="1" disallow="tram rail_urban rail rail_electric ship" speed="13.41" length="0.25" shape="217.91,1278.10 217.97,1277.81"/>
    </edge>
    <edge id=":5344200991_0" function="internal">
        <lane id=":5344200991_0_0" index="0" disallow="tram rail_urban rail rail_electric bicycle pedestrian ship" speed="13.41" length="0.10" shape="106.33,1315.90 106.33,1315.90"/>
        <lane id=":5344200991_0_1" index="1" disallow="tram rail_urban rail rail_electric bicycle pedestrian ship" speed="13.41" length="0.10" shape="105.83,1319.06 105.83,1319.06"/>
    </edge>
    <edge id=":5344200991_2" function="internal">
        <lane id=":5344200991_2_0" index="0" disallow="tram rail_urban rail rail_electric bicycle pedestrian ship" speed="13.41" length="0.10" shape="104.83,1325.38 104.83,1325.38"/>
        <lane id=":5344200991_2_1" index="1" disallow="tram rail_urban rail rail_electric bicycle pedestrian ship" speed="13.41" length="0.10" shape="105.33,1322.22 105.33,1322.22"/>
    </edge>
    <edge id=":cluster_107489_107503_2140546941_4053161802_440827599_5344182303_5344182305_0" function="internal">
        <lane id=":cluster_107489_107503_2140546941_4053161802_440827599_5344182303_5344182305_0_0" index="0" disallow="tram rail_urban rail rail_electric bicycle pedestrian ship" speed="10.98" length="25.86" shape="199.92,1317.88 197.45,1323.12 193.09,1326.45 186.84,1327.88 178.69,1327.39"/>
    </edge>
    <edge id=":cluster_107489_107503_2140546941_4053161802_440827599_5344182303_5344182305_1" function="internal">
        <lane id=":cluster_107489_107503_2140546941_4053161802_440827599_5344182303_5344182305_1_0" index="0" disallow="tram rail_urban rail rail_electric bicycle pedestrian ship" speed="12.75" length="36.15" shape="199.92,1317.88 201.38,1325.28 207.62,1332.33 216.11,1338.10 224.30,1341.66"/>
    </edge>
    <edge id=":cluster_107489_107503_2140546941_4053161802_440827599_5344182303_5344182305_2" function="internal">
        <lane id=":cluster_107489_107503_2140546941_4053161802_440827599_5344182303_5344182305_2_0" index="0" disallow="tram rail_urban rail rail_electric bicycle pedestrian ship" speed="12.52" length="34.87" shape="199.92,1317.88 201.52,1324.81 208.08,1330.80 216.89,1335.51 225.22,1338.60"/>
    </edge>
    <edge id=":cluster_107489_107503_2140546941_4053161802_440827599_5344182303_5344182305_3" function="internal">
        <lane id=":cluster_107489_107503_2140546941_4053161802_440827599_5344182303_5344182305_3_0" index="0" disallow="tram rail_urban rail rail_electric bicycle pedestrian ship" speed="11.85" length="31.10" shape="203.09,1318.41 204.33,1324.78 210.13,1329.53 218.16,1333.01 226.14,1335.53"/>
    </edge>
    <edge id=":cluster_107489_107503_2140546941_4053161802_440827599_5344182303_5344182305_4" function="internal">
        <lane id=":cluster_107489_107503_2140546941_4053161802_440827599_5344182303_5344182305_4_0" index="0" disallow="tram rail_urban rail rail_electric bicycle pedestrian ship" speed="11.69" length="30.27" shape="203.09,1318.41 204.48,1324.30 210.59,1328.00 218.94,1330.42 227.06,1332.47"/>
    </edge>
    <edge id=":cluster_107489_107503_2140546941_4053161802_440827599_5344182303_5344182305_5" function="internal">
        <lane id=":cluster_107489_107503_2140546941_4053161802_440827599_5344182303_5344182305_5_0" index="0" disallow="tram rail_urban rail rail_electric ship" speed="7.65" length="15.80" shape="227.06,1324.52 220.92,1324.93 216.69,1324.35 214.36,1322.79 213.93,1320.25"/>
    </edge>
    <edge id=":cluster_107489_107503_2140546941_4053161802_440827599_5344182303_5344182305_6" function="internal">
        <lane id=":cluster_107489_107503_2140546941_4053161802_440827599_5344182303_5344182305_6_0" index="0" disallow="tram rail_urban rail rail_electric ship" speed="8.39" length="19.26" shape="227.06,1324.52 219.48,1325.05 214.24,1324.43 211.34,1322.65 210.77,1319.72"/>
    </edge>
    <edge id=":cluster_107489_107503_2140546941_4053161802_440827599_5344182303_5344182305_7" function="internal">
        <lane id=":cluster_107489_107503_2140546941_4053161802_440827599_5344182303_5344182305_7_0" index="0" disallow="tram rail_urban rail rail_electric bicycle pedestrian ship" speed="13.65" length="48.97" shape="227.06,1324.52 216.70,1325.72 202.86,1327.02 189.02,1327.78 178.69,1327.39"/>
        <lane id=":cluster_107489_107503_2140546941_4053161802_440827599_5344182303_5344182305_7_1" index="1" disallow="tram rail_urban rail rail_electric bicycle pedestrian ship" speed="13.65" length="48.97" shape="227.46,1327.69 216.96,1328.89 202.81,1330.18 188.66,1330.94 178.19,1330.55"/>
    </edge>
    <edge id=":cluster_107489_107503_2140546941_4053161802_440827599_5344182303_5344182305_9" function="internal">
        <lane id=":cluster_107489_107503_2140546941_4053161802_440827599_5344182303_5344182305_9_0" index="0" disallow="tram rail_urban rail rail_electric bicycle pedestrian ship" speed="13.41" length="48.54" shape="177.19,1336.87 186.02,1337.47 197.26,1337.69 210.24,1338.70 224.30,1341.66"/>
        <lane id=":cluster_107489_107503_2140546941_4053161802_440827599_5344182303_5344182305_9_1" index="1" disallow="tram rail_urban rail rail_electric bicycle pedestrian ship" speed="13.41" length="48.54" shape="177.19,1336.87 186.17,1336.99 197.72,1336.16 211.02,1336.12 225.22,1338.60"/>
        <lane id=":cluster_107489_107503_2140546941_4053161802_440827599_5344182303_5344182305_9_2" index="2" disallow="tram rail_urban rail rail_electric bicycle pedestrian ship" speed="13.41" length="48.54" shape="177.69,1333.71 186.73,1333.85 198.44,1333.05 211.88,1333.04 226.14,1335.53"/>
        <lane id=":cluster_107489_107503_2140546941_4053161802_440827599_5344182303_5344182305_9_3" index="3" disallow="tram rail_urban rail rail_electric bicycle pedestrian ship" speed="13.41" length="48.54" shape="177.69,1333.71 186.88,1333.37 198.90,1331.52 212.66,1330.45 227.06,1332.47"/>
    </edge>
    <edge id=":cluster_107489_107503_2140546941_4053161802_440827599_5344182303_5344182305_13" function="internal">
        <lane id=":cluster_107489_107503_2140546941_4053161802_440827599_5344182303_5344182305_13_0" index="0" disallow="tram rail_urban rail rail_electric ship" speed="13.30" length="40.65" shape="177.69,1333.71 187.28,1333.65 198.88,1331.26 208.94,1326.73 213.93,1320.25"/>
    </edge>
    <edge id=":cluster_107489_107503_2140546941_4053161802_440827599_5344182303_5344182305_14" function="internal">
        <lane id=":cluster_107489_107503_2140546941_4053161802_440827599_5344182303_5344182305_14_0" index="0" disallow="tram rail_urban rail rail_electric ship" speed="12.87" length="38.02" shape="177.69,1333.71 186.79,1333.57 197.30,1331.00 206.28,1326.28 210.77,1319.72"/>
    </edge>
    <edge id=":cluster_2026643264_2140465349_2140510370_2140510374_2140805075_4089151443_440396074_440398915_440398917_440403474_4525051431_0" function="internal">
        <lane id=":cluster_2026643264_2140465349_2140510370_2140510374_2140805075_4089151443_440396074_440398915_440398917_440403474_4525051431_0_0" index="0" disallow="tram rail_urban rail rail_electric bicycle pedestrian ship" speed="13.41" length="56.45" shape="452.06,1363.02 439.92,1360.17 426.09,1356.59 411.27,1353.34 396.18,1351.48"/>
        <lane id=":cluster_2026643264_2140465349_2140510370_2140510374_2140805075_4089151443_440396074_440398915_440398917_440403474_4525051431_0_1" index="1" disallow="tram rail_urban rail rail_electric bicycle pedestrian ship" speed="13.41" length="56.45" shape="451.43,1366.16 439.36,1363.31 425.68,1359.75 411.02,1356.53 396.01,1354.67"/>
        <lane id=":cluster_2026643264_2140465349_2140510370_2140510374_2140805075_4089151443_440396074_440398915_440398917_440403474_4525051431_0_2" index="2" disallow="tram rail_urban rail rail_electric bicycle pedestrian ship" speed="13.41" length="56.45" shape="450.80,1369.29 438.81,1366.46 425.28,1362.92 410.78,1359.71 395.83,1357.87"/>
        <lane id=":cluster_2026643264_2140465349_2140510370_2140510374_2140805075_4089151443_440396074_440398915_440398917_440403474_4525051431_0_3" index="3" disallow="tram rail_urban rail rail_electric bicycle pedestrian ship" speed="13.41" length="56.45" shape="450.80,1369.29 438.78,1366.96 425.19,1364.52 410.63,1362.41 395.66,1361.06"/>
    </edge>
    <edge id=":cluster_2026643264_2140465349_2140510370_2140510374_2140805075_4089151443_440396074_440398915_440398917_440403474_4525051431_4" function="internal">
        <lane id=":cluster_2026643264_2140465349_2140510370_2140510374_2140805075_4089151443_440396074_440398915_440398917_440403474_4525051431_4_0" index="0" disallow="tram rail_urban rail rail_electric bicycle pedestrian ship" speed="10.96" length="24.78" shape="432.51,1390.86 435.77,1383.50 439.68,1378.57 444.24,1376.05 449.47,1375.95"/>
    </edge>
    <edge id=":cluster_2026643264_2140465349_2140510370_2140510374_2140805075_4089151443_440396074_440398915_440398917_440403474_4525051431_5" function="internal">
        <lane id=":cluster_2026643264_2140465349_2140510370_2140510374_2140805075_4089151443_440396074_440398915_440398917_440403474_4525051431_5_0" index="0" disallow="tram rail_urban rail rail_electric bicycle pedestrian ship" speed="11.98" length="29.77" shape="429.36,1390.20 433.24,1381.55 437.99,1375.77 443.61,1372.86 450.09,1372.81"/>
    </edge>
    <edge id=":cluster_2026643264_2140465349_2140510370_2140510374_2140805075_4089151443_440396074_440398915_440398917_440403474_4525051431_6" function="internal">
        <lane id=":cluster_2026643264_2140465349_2140510370_2140510374_2140805075_4089151443_440396074_440398915_440398917_440403474_4525051431_6_0" index="0" disallow="tram rail_urban rail rail_electric bicycle pedestrian ship" speed="13.41" length="57.51" shape="426.29,1389.55 427.25,1373.66 422.55,1362.02 412.19,1354.63 396.18,1351.48"/>
    </edge>
    <edge id=":cluster_2026643264_2140465349_2140510370_2140510374_2140805075_4089151443_440396074_440398915_440398917_440403474_4525051431_7" function="internal">
        <lane id=":cluster_2026643264_2140465349_2140510370_2140510374_2140805075_4089151443_440396074_440398915_440398917_440403474_4525051431_7_0" index="0" disallow="tram rail_urban rail rail_electric bicycle pedestrian ship" speed="13.41" length="54.67" shape="426.29,1389.55 426.98,1375.05 422.17,1364.41 411.85,1357.61 396.01,1354.67"/>
    </edge>
    <edge id=":cluster_2026643264_2140465349_2140510370_2140510374_2140805075_4089151443_440396074_440398915_440398917_440403474_4525051431_8" function="internal">
        <lane id=":cluster_2026643264_2140465349_2140510370_2140510374_2140805075_4089151443_440396074_440398915_440398917_440403474_4525051431_8_0" index="0" disallow="tram rail_urban rail rail_electric bicycle pedestrian ship" speed="13.41" length="48.91" shape="423.15,1388.89 423.75,1376.00 419.39,1366.54 410.09,1360.49 395.83,1357.87"/>
    </edge>
    <edge id=":cluster_2026643264_2140465349_2140510370_2140510374_2140805075_4089151443_440396074_440398915_440398917_440403474_4525051431_9" function="internal">
        <lane id=":cluster_2026643264_2140465349_2140510370_2140510374_2140805075_4089151443_440396074_440398915_440398917_440403474_4525051431_9_0" index="0" disallow="tram rail_urban rail rail_electric bicycle pedestrian ship" speed="13.34" length="46.13" shape="423.15,1388.89 423.49,1377.39 419.02,1368.92 409.74,1363.48 395.66,1361.06"/>
    </edge>
    <edge id=":cluster_2026643264_2140465349_2140510370_2140510374_2140805075_4089151443_440396074_440398915_440398917_440403474_4525051431_10" function="internal">
        <lane id=":cluster_2026643264_2140465349_2140510370_2140510374_2140805075_4089151443_440396074_440398915_440398917_440403474_4525051431_10_0" index="0" disallow="tram rail_urban rail rail_electric bicycle pedestrian ship" speed="10.65" length="16.34" shape="394.27,1386.56 399.07,1387.53 402.89,1389.20 405.71,1391.57 407.54,1394.66"/>
    </edge>
    <edge id=":cluster_2026643264_2140465349_2140510370_2140510374_2140805075_4089151443_440396074_440398915_440398917_440403474_4525051431_11" function="internal">