<?xml version="1.0" encoding="UTF-8"?>

<!-- generated on 03/01/19 20:53:21 by Eclipse SUMO netedit Version 1.0.1
<configuration xmlns:xsi="http://www.w3.org/2001/XMLSchema-instance" xsi:noNamespaceSchemaLocation="http://sumo.dlr.de/xsd/netconvertConfiguration.xsd">

    <input>
        <sumo-net-file value="C:\Users\Sam\OneDrive\_University\Year%204\Individual%20Project\SUMOIntersectionResearch\maps\BlackwellTunnelNorthApproach_no_TLS\BlackwellTunnelNorthApproach_no_TLS.net.xml"/>
    </input>

    <output>
        <output-file value="C:\Users\Sam\OneDrive\_University\Year%204\Individual%20Project\SUMOIntersectionResearch\maps\BlackwellTunnelNorthApproach_no_TLS\BlackwellTunnelNorthApproach_no_TLS.net.xml"/>
        <output.street-names value="true"/>
    </output>

    <processing>
        <offset.disable-normalization value="true"/>
        <lefthand value="true"/>
    </processing>

    <junctions>
        <no-turnarounds value="true"/>
        <junctions.corner-detail value="5"/>
        <junctions.limit-turn-speed value="5.5"/>
        <rectangular-lane-cut value="false"/>
    </junctions>

    <pedestrian>
        <walkingareas value="false"/>
    </pedestrian>

</configuration>
-->

<net version="1.0" junctionCornerDetail="5" lefthand="true" limitTurnSpeed="5.50" xmlns:xsi="http://www.w3.org/2001/XMLSchema-instance" xsi:noNamespaceSchemaLocation="http://sumo.dlr.de/xsd/net_file.xsd">

    <location netOffset="-707223.42,-5709593.93" convBoundary="77.38,0.00,1124.15,1702.68" origBoundary="-0.013416,51.499038,0.003102,51.515108" projParameter="+proj=utm +zone=30 +ellps=WGS84 +datum=WGS84 +units=m +no_defs"/>

    <type id="highway.bridleway" priority="1" numLanes="1" speed="2.78" allow="pedestrian" oneway="1" width="2.00"/>
    <type id="highway.bus_guideway" priority="1" numLanes="1" speed="27.78" allow="bus" oneway="1"/>
    <type id="highway.cycleway" priority="1" numLanes="1" speed="8.33" allow="bicycle" oneway="0" width="1.00"/>
    <type id="highway.footway" priority="1" numLanes="1" speed="2.78" allow="pedestrian" oneway="1" width="2.00"/>
    <type id="highway.ford" priority="1" numLanes="1" speed="2.78" allow="army" oneway="0"/>
    <type id="highway.living_street" priority="3" numLanes="1" speed="2.78" disallow="tram rail_urban rail rail_electric ship" oneway="0"/>
    <type id="highway.motorway" priority="13" numLanes="2" speed="44.44" allow="private emergency authority army vip passenger hov taxi bus coach delivery truck trailer motorcycle evehicle custom1 custom2" oneway="1"/>
    <type id="highway.motorway_link" priority="12" numLanes="1" speed="22.22" allow="private emergency authority army vip passenger hov taxi bus coach delivery truck trailer motorcycle evehicle custom1 custom2" oneway="1"/>
    <type id="highway.path" priority="1" numLanes="1" speed="2.78" allow="bicycle pedestrian" oneway="1" width="2.00"/>
    <type id="highway.pedestrian" priority="1" numLanes="1" speed="2.78" allow="pedestrian" oneway="1" width="2.00"/>
    <type id="highway.primary" priority="9" numLanes="2" speed="27.78" disallow="tram rail_urban rail rail_electric ship" oneway="0"/>
    <type id="highway.primary_link" priority="8" numLanes="1" speed="22.22" disallow="tram rail_urban rail rail_electric ship" oneway="0"/>
    <type id="highway.raceway" priority="14" numLanes="2" speed="83.33" allow="vip" oneway="0"/>
    <type id="highway.residential" priority="4" numLanes="1" speed="13.89" disallow="tram rail_urban rail rail_electric ship" oneway="0"/>
    <type id="highway.secondary" priority="7" numLanes="2" speed="27.78" disallow="tram rail_urban rail rail_electric ship" oneway="0"/>
    <type id="highway.secondary_link" priority="6" numLanes="1" speed="22.22" disallow="tram rail_urban rail rail_electric ship" oneway="0"/>
    <type id="highway.service" priority="2" numLanes="1" speed="5.56" allow="delivery bicycle pedestrian" oneway="0"/>
    <type id="highway.stairs" priority="1" numLanes="1" speed="1.39" allow="pedestrian" oneway="1" width="2.00"/>
    <type id="highway.step" priority="1" numLanes="1" speed="1.39" allow="pedestrian" oneway="1" width="2.00"/>
    <type id="highway.steps" priority="1" numLanes="1" speed="1.39" allow="pedestrian" oneway="1" width="2.00"/>
    <type id="highway.tertiary" priority="6" numLanes="1" speed="22.22" disallow="tram rail_urban rail rail_electric ship" oneway="0"/>
    <type id="highway.tertiary_link" priority="5" numLanes="1" speed="22.22" disallow="tram rail_urban rail rail_electric ship" oneway="0"/>
    <type id="highway.track" priority="1" numLanes="1" speed="5.56" disallow="tram rail_urban rail rail_electric ship" oneway="0"/>
    <type id="highway.trunk" priority="11" numLanes="2" speed="27.78" disallow="tram rail_urban rail rail_electric bicycle pedestrian ship" oneway="0"/>
    <type id="highway.trunk_link" priority="10" numLanes="1" speed="22.22" disallow="tram rail_urban rail rail_electric bicycle pedestrian ship" oneway="0"/>
    <type id="highway.unclassified" priority="5" numLanes="1" speed="13.89" disallow="tram rail_urban rail rail_electric ship" oneway="0"/>
    <type id="highway.unsurfaced" priority="1" numLanes="1" speed="8.33" disallow="tram rail_urban rail rail_electric ship" oneway="0"/>
    <type id="railway.light_rail" priority="15" numLanes="1" speed="27.78" allow="rail_urban" oneway="1"/>
    <type id="railway.preserved" priority="15" numLanes="1" speed="27.78" allow="rail" oneway="1"/>
    <type id="railway.rail" priority="15" numLanes="1" speed="83.33" allow="rail rail_electric" oneway="1"/>
    <type id="railway.subway" priority="15" numLanes="1" speed="27.78" allow="rail_urban" oneway="1"/>
    <type id="railway.tram" priority="15" numLanes="1" speed="13.89" allow="tram" oneway="1"/>

    <edge id=":11060852_0" function="internal">
        <lane id=":11060852_0_0" index="0" disallow="tram rail_urban rail rail_electric bicycle pedestrian ship" speed="13.41" length="26.01" shape="373.10,1621.71 378.38,1596.36"/>
        <lane id=":11060852_0_1" index="1" disallow="tram rail_urban rail rail_electric bicycle pedestrian ship" speed="13.41" length="26.01" shape="369.94,1621.17 375.27,1595.58"/>
    </edge>
    <edge id=":11060852_2" function="internal">
        <lane id=":11060852_2_0" index="0" disallow="tram rail_urban rail rail_electric bicycle pedestrian ship" speed="13.41" length="26.24" shape="369.94,1621.17 371.07,1613.04 371.39,1607.00 371.28,1601.51 371.13,1595.02"/>
    </edge>
    <edge id=":11060852_3" function="internal">
        <lane id=":11060852_3_0" index="0" disallow="tram rail_urban rail rail_electric bicycle pedestrian ship" speed="13.41" length="25.81" shape="366.79,1620.62 367.89,1612.66 368.19,1606.75 368.08,1601.35 367.93,1594.90"/>
    </edge>
    <edge id=":11130382_0" function="internal">
        <lane id=":11130382_0_0" index="0" disallow="tram rail_urban rail rail_electric bicycle pedestrian ship" speed="13.65" length="32.34" shape="363.52,1432.10 361.16,1440.36 359.18,1449.70 357.30,1458.04 355.23,1463.29"/>
    </edge>
    <edge id=":11130382_1" function="internal">
        <lane id=":11130382_1_0" index="0" speed="13.89" length="32.92" shape="363.52,1432.10 361.64,1439.74 360.91,1448.19 360.74,1456.75 360.59,1464.75"/>
    </edge>
    <edge id=":11130382_2" function="internal">
        <lane id=":11130382_2_0" index="0" speed="13.89" length="31.92" shape="366.52,1433.22 364.67,1440.72 364.00,1448.82 363.91,1457.05 363.79,1464.89"/>
    </edge>
    <edge id=":11130385_0" function="internal">
        <lane id=":11130385_0_0" index="0" speed="13.65" length="2.77" shape="469.50,1179.14 469.67,1178.40 469.88,1177.92 470.13,1177.46 470.45,1176.76"/>
        <lane id=":11130385_0_1" index="1" speed="13.65" length="2.77" shape="466.40,1178.31 466.59,1177.46 466.82,1176.91 467.11,1176.37 467.48,1175.57"/>
    </edge>
    <edge id=":12201683_0" function="internal">
        <lane id=":12201683_0_0" index="0" disallow="tram rail_urban rail rail_electric bicycle pedestrian ship" speed="13.41" length="0.86" shape="300.65,1414.46 300.33,1415.72"/>
        <lane id=":12201683_0_1" index="1" disallow="tram rail_urban rail rail_electric bicycle pedestrian ship" speed="13.41" length="0.86" shape="303.71,1415.38 303.68,1415.50 303.67,1415.59 303.65,1415.67 303.62,1415.80"/>
    </edge>
    <edge id=":1693942242_0" function="internal">
        <lane id=":1693942242_0_0" index="0" disallow="tram rail_urban rail rail_electric ship" speed="13.41" length="0.27" shape="216.14,1313.70 216.21,1313.31"/>
        <lane id=":1693942242_0_1" index="1" disallow="tram rail_urban rail rail_electric ship" speed="13.41" length="0.27" shape="213.02,1313.00 213.04,1312.87"/>
    </edge>
    <edge id=":2014156889_0" function="internal">
        <lane id=":2014156889_0_0" index="0" disallow="tram rail_urban rail rail_electric bicycle pedestrian ship" speed="13.41" length="0.25" shape="459.17,1148.68 459.17,1148.87"/>
        <lane id=":2014156889_0_1" index="1" disallow="tram rail_urban rail rail_electric bicycle pedestrian ship" speed="13.41" length="0.25" shape="462.37,1148.58 462.37,1148.91"/>
    </edge>
    <edge id=":2075331942_0" function="internal">
        <lane id=":2075331942_0_0" index="0" disallow="tram rail_urban rail rail_electric bicycle pedestrian ship" speed="13.41" length="0.30" shape="607.95,1424.26 608.24,1424.36"/>
        <lane id=":2075331942_0_1" index="1" disallow="tram rail_urban rail rail_electric bicycle pedestrian ship" speed="13.41" length="0.30" shape="609.00,1421.24 609.28,1421.34"/>
        <lane id=":2075331942_0_2" index="2" disallow="tram rail_urban rail rail_electric bicycle pedestrian ship" speed="13.41" length="0.30" shape="610.05,1418.22 610.33,1418.31"/>
    </edge>
    <edge id=":2140465365_0" function="internal">
        <lane id=":2140465365_0_0" index="0" speed="13.65" length="3.28" shape="375.92,1325.04 374.86,1324.93 374.14,1324.83 373.42,1324.78 372.37,1324.84"/>
        <lane id=":2140465365_0_1" index="1" speed="13.65" length="3.28" shape="375.67,1328.23 374.78,1328.13 374.17,1328.03 373.56,1327.98 372.68,1328.02"/>
    </edge>
    <edge id=":2140472412_0" function="internal">
        <lane id=":2140472412_0_0" index="0" disallow="tram rail_urban rail rail_electric bicycle pedestrian ship" speed="13.41" length="0.29" shape="430.22,1327.96 430.35,1327.72"/>
        <lane id=":2140472412_0_1" index="1" disallow="tram rail_urban rail rail_electric bicycle pedestrian ship" speed="13.41" length="0.29" shape="427.40,1326.45 427.55,1326.18"/>
    </edge>
    <edge id=":2140482757_0" function="internal">
        <lane id=":2140482757_0_0" index="0" disallow="tram rail_urban rail rail_electric bicycle pedestrian ship" speed="13.41" length="2.46" shape="457.93,1109.98 457.97,1110.71 457.99,1111.20 457.98,1111.70 457.95,1112.43"/>
    </edge>
    <edge id=":2140482757_1" function="internal">
        <lane id=":2140482757_1_0" index="0" disallow="tram rail_urban rail rail_electric bicycle pedestrian ship" speed="13.41" length="2.64" shape="457.93,1109.98 458.05,1112.44"/>
        <lane id=":2140482757_1_1" index="1" disallow="tram rail_urban rail rail_electric bicycle pedestrian ship" speed="13.41" length="2.64" shape="461.12,1109.78 461.25,1112.59"/>
    </edge>
    <edge id=":2140490244_0" function="internal">
        <lane id=":2140490244_0_0" index="0" disallow="tram rail_urban rail rail_electric bicycle pedestrian ship" speed="13.41" length="0.90" shape="332.09,1392.24 332.19,1392.15 332.26,1392.10 332.34,1392.05 332.46,1391.99"/>
        <lane id=":2140490244_0_1" index="1" disallow="tram rail_urban rail rail_electric bicycle pedestrian ship" speed="13.41" length="0.90" shape="329.97,1389.84 330.28,1389.58 330.50,1389.41 330.74,1389.27 331.10,1389.10"/>
    </edge>
    <edge id=":2140514378_0" function="internal">
        <lane id=":2140514378_0_0" index="0" disallow="tram rail_urban rail rail_electric bicycle pedestrian ship" speed="13.41" length="0.28" shape="391.99,1543.26 392.00,1543.22 392.01,1543.19 392.02,1543.17 392.03,1543.13"/>
        <lane id=":2140514378_0_1" index="1" disallow="tram rail_urban rail rail_electric bicycle pedestrian ship" speed="13.41" length="0.28" shape="388.90,1542.43 388.93,1542.31 388.96,1542.23 388.98,1542.15 389.03,1542.03"/>
    </edge>
    <edge id=":2140546949_0" function="internal">
        <lane id=":2140546949_0_0" index="0" disallow="tram rail_urban rail rail_electric ship" speed="13.41" length="0.30" shape="205.82,1290.79 205.75,1291.07"/>
        <lane id=":2140546949_0_1" index="1" disallow="tram rail_urban rail rail_electric ship" speed="13.41" length="0.30" shape="208.93,1291.52 208.86,1291.82"/>
    </edge>
    <edge id=":2142198200_0" function="internal">
        <lane id=":2142198200_0_0" index="0" disallow="tram rail_urban rail rail_electric bicycle pedestrian ship" speed="13.41" length="0.10" shape="370.89,1535.83 370.89,1535.83"/>
        <lane id=":2142198200_0_1" index="1" disallow="tram rail_urban rail rail_electric bicycle pedestrian ship" speed="13.41" length="0.10" shape="367.69,1535.85 367.69,1535.85"/>
    </edge>
    <edge id=":2143334097_0" function="internal">
        <lane id=":2143334097_0_0" index="0" disallow="tram rail_urban rail rail_electric bicycle pedestrian ship" speed="13.41" length="0.84" shape="403.03,1443.09 403.00,1443.21 402.98,1443.29 402.95,1443.37 402.89,1443.48"/>
        <lane id=":2143334097_0_1" index="1" disallow="tram rail_urban rail rail_electric bicycle pedestrian ship" speed="13.41" length="0.84" shape="406.16,1443.74 406.08,1444.11 406.01,1444.36 405.91,1444.59 405.75,1444.93"/>
    </edge>
    <edge id=":2464441436_0" function="internal">
        <lane id=":2464441436_0_0" index="0" disallow="tram rail_urban rail rail_electric bicycle pedestrian ship" speed="13.41" length="0.28" shape="386.86,1562.35 386.92,1562.11"/>
        <lane id=":2464441436_0_1" index="1" disallow="tram rail_urban rail rail_electric bicycle pedestrian ship" speed="13.41" length="0.28" shape="383.75,1561.58 383.83,1561.28"/>
    </edge>
    <edge id=":262374840_0" function="internal">
        <lane id=":262374840_0_0" index="0" disallow="tram rail_urban rail rail_electric bicycle pedestrian ship" speed="3.65" length="4.67" shape="77.58,1314.57 76.29,1315.21 75.79,1315.96 76.09,1316.80 77.18,1317.75"/>
    </edge>
    <edge id=":262374856_0" function="internal">
        <lane id=":262374856_0_0" index="0" disallow="tram rail_urban rail rail_electric ship" speed="13.41" length="0.49" shape="225.23,1207.64 225.11,1208.20"/>
        <lane id=":262374856_0_1" index="1" disallow="tram rail_urban rail rail_electric ship" speed="13.41" length="0.49" shape="228.34,1208.37 228.26,1208.77"/>
    </edge>
    <edge id=":262374856_2" function="internal">
        <lane id=":262374856_2_0" index="0" disallow="tram rail_urban rail rail_electric ship" speed="13.41" length="0.17" shape="234.55,1209.92 234.57,1209.84"/>
        <lane id=":262374856_2_1" index="1" disallow="tram rail_urban rail rail_electric ship" speed="13.41" length="0.17" shape="231.40,1209.35 231.45,1209.11"/>
    </edge>
    <edge id=":440394724_0" function="internal">
        <lane id=":440394724_0_0" index="0" disallow="tram rail_urban rail rail_electric bicycle pedestrian ship" speed="13.41" length="6.71" shape="312.65,1416.22 313.48,1414.51 314.43,1413.56 315.48,1412.64 316.60,1411.06"/>
        <lane id=":440394724_0_1" index="1" disallow="tram rail_urban rail rail_electric bicycle pedestrian ship" speed="13.41" length="6.71" shape="312.65,1416.22 313.05,1414.24 313.01,1412.79 313.08,1411.39 313.78,1409.55"/>
    </edge>
    <edge id=":440395986_0" function="internal">
        <lane id=":440395986_0_0" index="0" disallow="tram rail_urban rail rail_electric bicycle pedestrian ship" speed="13.41" length="7.76" shape="506.09,1387.42 508.16,1388.20 509.42,1389.11 510.66,1390.09 512.67,1391.05"/>
        <lane id=":440395986_0_1" index="1" disallow="tram rail_urban rail rail_electric bicycle pedestrian ship" speed="13.41" length="7.76" shape="506.09,1387.42 508.34,1387.73 509.95,1387.60 511.53,1387.53 513.72,1388.03"/>
        <lane id=":440395986_0_2" index="2" disallow="tram rail_urban rail rail_electric bicycle pedestrian ship" speed="13.41" length="7.76" shape="506.86,1384.32 509.20,1384.64 510.86,1384.53 512.50,1384.48 514.78,1385.00"/>
    </edge>
    <edge id=":440396065_0" function="internal">
        <lane id=":440396065_0_0" index="0" disallow="tram rail_urban rail rail_electric bicycle pedestrian ship" speed="13.41" length="13.60" shape="344.24,1386.43 347.05,1384.04 348.51,1381.29 350.05,1379.21 353.11,1378.84"/>
        <lane id=":440396065_0_1" index="1" disallow="tram rail_urban rail rail_electric bicycle pedestrian ship" speed="13.41" length="13.60" shape="344.20,1382.91 347.14,1380.55 348.78,1377.92 350.52,1375.99 353.72,1375.70"/>
        <lane id=":440396065_0_2" index="2" disallow="tram rail_urban rail rail_electric bicycle pedestrian ship" speed="13.41" length="13.60" shape="344.20,1382.91 347.54,1379.80 349.05,1376.06 350.66,1373.16 354.32,1372.55"/>
    </edge>
    <edge id=":440396065_3" function="internal">
        <lane id=":440396065_3_0" index="0" disallow="tram rail_urban rail rail_electric bicycle pedestrian ship" speed="13.65" length="9.11" shape="343.75,1375.85 346.42,1377.04 348.30,1377.76 350.24,1378.26 353.11,1378.84"/>
        <lane id=":440396065_3_1" index="1" disallow="tram rail_urban rail rail_electric bicycle pedestrian ship" speed="13.65" length="9.11" shape="345.07,1372.94 347.54,1374.04 349.27,1374.70 351.07,1375.16 353.72,1375.70"/>
        <lane id=":440396065_3_2" index="2" disallow="tram rail_urban rail rail_electric bicycle pedestrian ship" speed="13.65" length="9.11" shape="346.40,1370.02 348.66,1371.03 350.25,1371.64 351.89,1372.07 354.32,1372.55"/>
    </edge>
    <edge id=":440397370_0" function="internal">
        <lane id=":440397370_0_0" index="0" disallow="tram rail_urban rail rail_electric bicycle pedestrian ship" speed="13.65" length="3.47" shape="312.21,1376.53 311.64,1377.53 311.37,1378.28 311.20,1379.07 310.91,1380.19"/>
        <lane id=":440397370_0_1" index="1" disallow="tram rail_urban rail rail_electric bicycle pedestrian ship" speed="13.65" length="3.47" shape="314.90,1378.27 314.47,1379.04 314.29,1379.62 314.19,1380.24 313.98,1381.11"/>
    </edge>
    <edge id=":440398340_0" function="internal">
        <lane id=":440398340_0_0" index="0" disallow="tram rail_urban rail rail_electric bicycle pedestrian ship" speed="5.85" length="9.12" shape="378.33,1469.39 375.70,1469.72 373.91,1469.06 372.97,1467.40 372.88,1464.75"/>
    </edge>
    <edge id=":440398340_1" function="internal">
        <lane id=":440398340_1_0" index="0" disallow="tram rail_urban rail rail_electric bicycle pedestrian ship" speed="7.50" length="15.86" shape="379.17,1472.48 374.59,1473.06 371.49,1471.91 369.85,1469.03 369.70,1464.41"/>
    </edge>
    <edge id=":440398340_2" function="internal">
        <lane id=":440398340_2_0" index="0" disallow="tram rail_urban rail rail_electric bicycle pedestrian ship" speed="13.41" length="16.01" shape="371.45,1480.59 372.88,1464.75"/>
        <lane id=":440398340_2_1" index="1" disallow="tram rail_urban rail rail_electric bicycle pedestrian ship" speed="13.41" length="16.01" shape="368.25,1480.46 369.70,1464.41"/>
    </edge>
    <edge id=":440399329_0" function="internal">
        <lane id=":440399329_0_0" index="0" speed="13.65" length="3.27" shape="374.65,1403.95 374.10,1404.84 373.69,1405.44 373.34,1406.07 372.93,1407.03"/>
        <lane id=":440399329_0_1" index="1" speed="13.65" length="3.27" shape="377.42,1405.56 376.94,1406.31 376.59,1406.82 376.28,1407.34 375.93,1408.16"/>
    </edge>
    <edge id=":440399362_0" function="internal">
        <lane id=":440399362_0_0" index="0" disallow="tram rail_urban rail rail_electric bicycle pedestrian ship" speed="13.41" length="0.32" shape="394.32,1393.29 394.33,1393.25 394.35,1393.22 394.36,1393.19 394.39,1393.15"/>
        <lane id=":440399362_0_1" index="1" disallow="tram rail_urban rail rail_electric bicycle pedestrian ship" speed="13.41" length="0.32" shape="391.38,1392.02 391.43,1391.89 391.48,1391.80 391.52,1391.72 391.59,1391.59"/>
    </edge>
    <edge id=":440400209_0" function="internal">
        <lane id=":440400209_0_0" index="0" speed="13.89" length="19.17" shape="347.04,1327.26 341.67,1326.98 338.15,1325.39 334.65,1323.40 329.30,1321.91"/>
        <lane id=":440400209_0_1" index="1" speed="13.89" length="19.17" shape="347.34,1330.45 341.76,1330.18 338.09,1328.60 334.43,1326.60 328.86,1325.08"/>
    </edge>
    <edge id=":440400209_2" function="internal">
        <lane id=":440400209_2_0" index="0" speed="13.89" length="19.04" shape="346.33,1335.68 341.25,1332.83 337.75,1330.79 334.07,1329.34 328.43,1328.25"/>
        <lane id=":440400209_2_1" index="1" speed="13.89" length="19.04" shape="344.87,1338.52 340.07,1335.82 336.78,1333.86 333.31,1332.47 327.99,1331.42"/>
    </edge>
    <edge id=":440400851_0" function="internal">
        <lane id=":440400851_0_0" index="0" disallow="tram rail_urban rail rail_electric bicycle pedestrian ship" speed="13.41" length="0.83" shape="389.39,1351.06 389.33,1351.06 389.29,1351.06 389.25,1351.05 389.19,1351.04"/>
        <lane id=":440400851_0_1" index="1" disallow="tram rail_urban rail rail_electric bicycle pedestrian ship" speed="13.41" length="0.83" shape="389.20,1354.26 389.02,1354.25 388.89,1354.23 388.77,1354.21 388.58,1354.18"/>
        <lane id=":440400851_0_2" index="2" disallow="tram rail_urban rail rail_electric bicycle pedestrian ship" speed="13.41" length="0.83" shape="389.01,1357.45 388.70,1357.43 388.49,1357.41 388.28,1357.38 387.98,1357.32"/>
        <lane id=":440400851_0_3" index="3" disallow="tram rail_urban rail rail_electric bicycle pedestrian ship" speed="13.41" length="0.83" shape="388.82,1360.65 388.39,1360.62 388.09,1360.59 387.80,1360.55 387.38,1360.47"/>
    </edge>
    <edge id=":440403197_0" function="internal">
        <lane id=":440403197_0_0" index="0" disallow="tram rail_urban rail rail_electric bicycle pedestrian ship" speed="13.41" length="2.70" shape="422.71,1420.74 422.88,1419.96 423.01,1419.43 423.18,1418.90 423.43,1418.15"/>
    </edge>
    <edge id=":440403197_1" function="internal">
        <lane id=":440403197_1_0" index="0" disallow="tram rail_urban rail rail_electric bicycle pedestrian ship" speed="13.41" length="4.27" shape="422.71,1420.74 420.39,1417.15"/>
    </edge>
    <edge id=":440403197_2" function="internal">
        <lane id=":440403197_2_0" index="0" disallow="tram rail_urban rail rail_electric bicycle pedestrian ship" speed="13.41" length="2.91" shape="422.71,1420.74 423.13,1418.05"/>
        <lane id=":440403197_2_1" index="1" disallow="tram rail_urban rail rail_electric bicycle pedestrian ship" speed="13.41" length="2.91" shape="419.58,1420.10 420.03,1417.04"/>
    </edge>
    <edge id=":440827486_0" function="internal">
        <lane id=":440827486_0_0" index="0" disallow="tram rail_urban rail rail_electric ship" speed="13.41" length="5.65" shape="218.39,1245.01 218.06,1246.51 217.71,1247.49 217.22,1248.44 216.49,1249.79"/>
        <lane id=":440827486_0_1" index="1" disallow="tram rail_urban rail rail_electric ship" speed="13.41" length="5.65" shape="221.54,1245.59 221.16,1247.36 220.76,1248.53 220.19,1249.65 219.34,1251.26"/>
    </edge>
    <edge id=":440827486_2" function="internal">
        <lane id=":440827486_2_0" index="0" disallow="tram rail_urban rail rail_electric ship" speed="13.41" length="10.75" shape="225.93,1257.02 227.83,1246.74"/>
        <lane id=":440827486_2_1" index="1" disallow="tram rail_urban rail rail_electric ship" speed="13.41" length="10.75" shape="222.65,1257.01 224.69,1246.16"/>
    </edge>
    <edge id=":440827597_0" function="internal">
        <lane id=":440827597_0_0" index="0" disallow="tram rail_urban rail rail_electric ship" speed="13.41" length="0.30" shape="202.18,1306.10 202.12,1306.40"/>
        <lane id=":440827597_0_1" index="1" disallow="tram rail_urban rail rail_electric ship" speed="13.41" length="0.30" shape="205.30,1306.80 205.24,1307.09"/>
    </edge>
    <edge id=":440827997_0" function="internal">
        <lane id=":440827997_0_0" index="0" disallow="tram rail_urban rail rail_electric bicycle pedestrian ship" speed="13.41" length="0.30" shape="256.02,1344.02 256.33,1344.06"/>
        <lane id=":440827997_0_1" index="1" disallow="tram rail_urban rail rail_electric bicycle pedestrian ship" speed="13.41" length="0.30" shape="256.44,1340.85 256.74,1340.89"/>
        <lane id=":440827997_0_2" index="2" disallow="tram rail_urban rail rail_electric bicycle pedestrian ship" speed="13.41" length="0.30" shape="256.86,1337.67 257.15,1337.71"/>
        <lane id=":440827997_0_3" index="3" disallow="tram rail_urban rail rail_electric bicycle pedestrian ship" speed="13.41" length="0.30" shape="257.28,1334.50 257.56,1334.54"/>
    </edge>
    <edge id=":440828223_0" function="internal">
        <lane id=":440828223_0_0" index="0" disallow="tram rail_urban rail rail_electric ship" speed="13.41" length="24.38" shape="225.43,1299.75 222.94,1293.60 221.25,1288.39 220.67,1283.09 221.50,1276.67"/>
        <lane id=":440828223_0_1" index="1" disallow="tram rail_urban rail rail_electric ship" speed="13.41" length="24.38" shape="222.09,1300.03 219.64,1293.73 218.02,1288.18 217.51,1282.54 218.38,1275.97"/>
    </edge>
    <edge id=":440828223_2" function="internal">
        <lane id=":440828223_2_0" index="0" disallow="tram rail_urban rail rail_electric ship" speed="13.41" length="23.75" shape="218.07,1300.04 221.50,1276.67"/>
        <lane id=":440828223_2_1" index="1" disallow="tram rail_urban rail rail_electric ship" speed="13.41" length="23.75" shape="214.90,1299.59 218.38,1275.97"/>
    </edge>
    <edge id=":441167651_0" function="internal">
        <lane id=":441167651_0_0" index="0" speed="13.65" length="2.83" shape="290.00,1348.54 290.21,1348.57 290.35,1348.61 290.48,1348.67 290.66,1348.78"/>
        <lane id=":441167651_0_1" index="1" speed="8.37" length="2.83" shape="290.45,1345.37 291.07,1345.46 291.49,1345.58 291.88,1345.77 292.41,1346.10"/>
        <lane id=":441167651_0_2" index="2" speed="10.67" length="2.83" shape="290.89,1342.20 291.92,1342.36 292.62,1342.55 293.27,1342.86 294.16,1343.42"/>
        <lane id=":441167651_0_3" index="3" speed="12.55" length="2.83" shape="291.33,1339.03 292.78,1339.25 293.76,1339.51 294.67,1339.96 295.91,1340.75"/>
    </edge>
    <edge id=":4457192339_0" function="internal">
        <lane id=":4457192339_0_0" index="0" disallow="tram rail_urban rail rail_electric ship" speed="13.41" length="0.30" shape="224.41,1263.75 224.47,1263.46"/>
        <lane id=":4457192339_0_1" index="1" disallow="tram rail_urban rail rail_electric ship" speed="13.41" length="0.30" shape="221.29,1263.05 221.35,1262.75"/>
    </edge>
    <edge id=":4525051436_0" function="internal">
        <lane id=":4525051436_0_0" index="0" allow="bicycle" speed="2.04" length="1.46" width="1.00" shape="616.17,1409.05 616.61,1408.94 616.80,1408.74 616.77,1408.46 616.49,1408.11"/>
    </edge>
    <edge id=":5344200991_0" function="internal">
        <lane id=":5344200991_0_0" index="0" disallow="tram rail_urban rail rail_electric bicycle pedestrian ship" speed="13.41" length="2.25" shape="162.29,1321.64 161.55,1321.39 161.04,1321.25 160.51,1321.16 159.73,1321.08"/>
        <lane id=":5344200991_0_1" index="1" disallow="tram rail_urban rail rail_electric bicycle pedestrian ship" speed="13.41" length="2.25" shape="161.25,1324.66 160.72,1324.49 160.35,1324.38 159.97,1324.32 159.42,1324.26"/>
    </edge>
    <edge id=":5344200991_2" function="internal">
        <lane id=":5344200991_2_0" index="0" disallow="tram rail_urban rail rail_electric bicycle pedestrian ship" speed="13.41" length="0.75" shape="158.79,1330.63 158.90,1330.64 158.97,1330.66 159.05,1330.68 159.15,1330.71"/>
        <lane id=":5344200991_2_1" index="1" disallow="tram rail_urban rail rail_electric bicycle pedestrian ship" speed="13.41" length="0.75" shape="159.10,1327.45 159.44,1327.48 159.66,1327.52 159.88,1327.58 160.20,1327.69"/>
    </edge>
    <edge id=":5471193042_0" function="internal">
        <lane id=":5471193042_0_0" index="0" disallow="tram rail_urban rail rail_electric bicycle pedestrian ship" speed="13.41" length="0.74" shape="410.55,1319.63 410.49,1319.72 410.44,1319.79 410.39,1319.84 410.32,1319.92"/>
        <lane id=":5471193042_0_1" index="1" disallow="tram rail_urban rail rail_electric bicycle pedestrian ship" speed="13.41" length="0.74" shape="413.26,1321.32 413.09,1321.60 412.96,1321.78 412.81,1321.95 412.58,1322.18"/>
    </edge>
    <edge id=":cluster_107489_107503_2140546941_4053161802_440827599_5344182303_5344182305_0" function="internal">
        <lane id=":cluster_107489_107503_2140546941_4053161802_440827599_5344182303_5344182305_0_0" index="0" disallow="tram rail_urban rail rail_electric bicycle pedestrian ship" speed="10.51" length="27.48" shape="199.96,1316.14 197.25,1323.31 192.94,1327.61 187.02,1329.04 179.51,1327.59"/>
    </edge>
    <edge id=":cluster_107489_107503_2140546941_4053161802_440827599_5344182303_5344182305_1" function="internal">
        <lane id=":cluster_107489_107503_2140546941_4053161802_440827599_5344182303_5344182305_1_0" index="0" disallow="tram rail_urban rail rail_electric bicycle pedestrian ship" speed="11.33" length="10.20" shape="199.96,1316.14 200.39,1323.64 201.67,1326.01"/>
    </edge>
    <edge id=":cluster_107489_107503_2140546941_4053161802_440827599_5344182303_5344182305_2" function="internal">
        <lane id=":cluster_107489_107503_2140546941_4053161802_440827599_5344182303_5344182305_2_0" index="0" disallow="tram rail_urban rail rail_electric bicycle pedestrian ship" speed="10.97" length="10.34" shape="199.96,1316.14 200.45,1323.14 202.29,1325.92"/>
    </edge>