<?xml version="1.0" encoding="UTF-8"?>

<!-- generated on 02/27/19 19:23:17 by Eclipse SUMO netedit Version 1.0.1
<configuration xmlns:xsi="http://www.w3.org/2001/XMLSchema-instance" xsi:noNamespaceSchemaLocation="http://sumo.dlr.de/xsd/netconvertConfiguration.xsd">

    <input>
        <sumo-net-file value="C:\Users\Sam\SUMO\2019-02-27-18-36-15\osm.net.xml"/>
    </input>

    <output>
        <output-file value="C:\Users\Sam\SUMO\2019-02-27-18-36-15\osm.net.xml"/>
        <output.street-names value="true"/>
    </output>

    <processing>
        <offset.disable-normalization value="true"/>
        <lefthand value="true"/>
    </processing>

    <junctions>
        <no-turnarounds value="true"/>
        <junctions.corner-detail value="5"/>
        <junctions.limit-turn-speed value="5.5"/>
        <rectangular-lane-cut value="false"/>
    </junctions>

    <pedestrian>
        <walkingareas value="false"/>
    </pedestrian>

</configuration>
-->

<net version="1.0" junctionCornerDetail="5" lefthand="true" limitTurnSpeed="5.50" xmlns:xsi="http://www.w3.org/2001/XMLSchema-instance" xsi:noNamespaceSchemaLocation="http://sumo.dlr.de/xsd/net_file.xsd">

    <location netOffset="-707223.42,-5709593.93" convBoundary="77.38,0.00,1124.15,1702.68" origBoundary="-0.013416,51.499038,0.003102,51.515108" projParameter="+proj=utm +zone=30 +ellps=WGS84 +datum=WGS84 +units=m +no_defs"/>

    <type id="highway.bridleway" priority="1" numLanes="1" speed="2.78" allow="pedestrian" oneway="1" width="2.00"/>
    <type id="highway.bus_guideway" priority="1" numLanes="1" speed="27.78" allow="bus" oneway="1"/>
    <type id="highway.cycleway" priority="1" numLanes="1" speed="8.33" allow="bicycle" oneway="0" width="1.00"/>
    <type id="highway.footway" priority="1" numLanes="1" speed="2.78" allow="pedestrian" oneway="1" width="2.00"/>
    <type id="highway.ford" priority="1" numLanes="1" speed="2.78" allow="army" oneway="0"/>
    <type id="highway.living_street" priority="3" numLanes="1" speed="2.78" disallow="tram rail_urban rail rail_electric ship" oneway="0"/>
    <type id="highway.motorway" priority="13" numLanes="2" speed="44.44" allow="private emergency authority army vip passenger hov taxi bus coach delivery truck trailer motorcycle evehicle custom1 custom2" oneway="1"/>
    <type id="highway.motorway_link" priority="12" numLanes="1" speed="22.22" allow="private emergency authority army vip passenger hov taxi bus coach delivery truck trailer motorcycle evehicle custom1 custom2" oneway="1"/>
    <type id="highway.path" priority="1" numLanes="1" speed="2.78" allow="bicycle pedestrian" oneway="1" width="2.00"/>
    <type id="highway.pedestrian" priority="1" numLanes="1" speed="2.78" allow="pedestrian" oneway="1" width="2.00"/>
    <type id="highway.primary" priority="9" numLanes="2" speed="27.78" disallow="tram rail_urban rail rail_electric ship" oneway="0"/>
    <type id="highway.primary_link" priority="8" numLanes="1" speed="22.22" disallow="tram rail_urban rail rail_electric ship" oneway="0"/>
    <type id="highway.raceway" priority="14" numLanes="2" speed="83.33" allow="vip" oneway="0"/>
    <type id="highway.residential" priority="4" numLanes="1" speed="13.89" disallow="tram rail_urban rail rail_electric ship" oneway="0"/>
    <type id="highway.secondary" priority="7" numLanes="2" speed="27.78" disallow="tram rail_urban rail rail_electric ship" oneway="0"/>
    <type id="highway.secondary_link" priority="6" numLanes="1" speed="22.22" disallow="tram rail_urban rail rail_electric ship" oneway="0"/>
    <type id="highway.service" priority="2" numLanes="1" speed="5.56" allow="delivery bicycle pedestrian" oneway="0"/>
    <type id="highway.stairs" priority="1" numLanes="1" speed="1.39" allow="pedestrian" oneway="1" width="2.00"/>
    <type id="highway.step" priority="1" numLanes="1" speed="1.39" allow="pedestrian" oneway="1" width="2.00"/>
    <type id="highway.steps" priority="1" numLanes="1" speed="1.39" allow="pedestrian" oneway="1" width="2.00"/>
    <type id="highway.tertiary" priority="6" numLanes="1" speed="22.22" disallow="tram rail_urban rail rail_electric ship" oneway="0"/>
    <type id="highway.tertiary_link" priority="5" numLanes="1" speed="22.22" disallow="tram rail_urban rail rail_electric ship" oneway="0"/>
    <type id="highway.track" priority="1" numLanes="1" speed="5.56" disallow="tram rail_urban rail rail_electric ship" oneway="0"/>
    <type id="highway.trunk" priority="11" numLanes="2" speed="27.78" disallow="tram rail_urban rail rail_electric bicycle pedestrian ship" oneway="0"/>
    <type id="highway.trunk_link" priority="10" numLanes="1" speed="22.22" disallow="tram rail_urban rail rail_electric bicycle pedestrian ship" oneway="0"/>
    <type id="highway.unclassified" priority="5" numLanes="1" speed="13.89" disallow="tram rail_urban rail rail_electric ship" oneway="0"/>
    <type id="highway.unsurfaced" priority="1" numLanes="1" speed="8.33" disallow="tram rail_urban rail rail_electric ship" oneway="0"/>
    <type id="railway.light_rail" priority="15" numLanes="1" speed="27.78" allow="rail_urban" oneway="1"/>
    <type id="railway.preserved" priority="15" numLanes="1" speed="27.78" allow="rail" oneway="1"/>
    <type id="railway.rail" priority="15" numLanes="1" speed="83.33" allow="rail rail_electric" oneway="1"/>
    <type id="railway.subway" priority="15" numLanes="1" speed="27.78" allow="rail_urban" oneway="1"/>
    <type id="railway.tram" priority="15" numLanes="1" speed="13.89" allow="tram" oneway="1"/>

    <edge id=":11060852_0" function="internal">
        <lane id=":11060852_0_0" index="0" disallow="tram rail_urban rail rail_electric bicycle pedestrian ship" speed="13.41" length="24.24" shape="373.10,1621.71 375.14,1597.55"/>
    </edge>
    <edge id=":11060852_1" function="internal">
        <lane id=":11060852_1_0" index="0" disallow="tram rail_urban rail rail_electric bicycle pedestrian ship" speed="13.41" length="24.17" shape="369.94,1621.17 371.00,1613.80 371.32,1608.42 371.26,1603.39 371.14,1597.08"/>
    </edge>
    <edge id=":11060852_2" function="internal">
        <lane id=":11060852_2_0" index="0" disallow="tram rail_urban rail rail_electric bicycle pedestrian ship" speed="13.41" length="23.74" shape="366.79,1620.62 367.82,1613.41 368.13,1608.17 368.06,1603.24 367.94,1596.97"/>
    </edge>
    <edge id=":11130382_0" function="internal">
        <lane id=":11130382_0_0" index="0" disallow="tram rail_urban rail rail_electric bicycle pedestrian ship" speed="13.41" length="15.29" shape="359.44,1450.80 358.12,1455.53 357.04,1459.12 355.80,1462.10 353.98,1464.98"/>
    </edge>
    <edge id=":11130382_1" function="internal">
        <lane id=":11130382_1_0" index="0" disallow="tram rail_urban rail rail_electric bicycle pedestrian ship" speed="13.41" length="13.90" shape="362.52,1451.69 361.44,1455.67 360.87,1458.43 360.46,1461.23 359.89,1465.32"/>
    </edge>
    <edge id=":11130382_2" function="internal">
        <lane id=":11130382_2_0" index="0" disallow="tram rail_urban rail rail_electric bicycle pedestrian ship" speed="13.41" length="13.68" shape="365.59,1452.58 364.49,1456.49 363.86,1459.19 363.45,1461.95 363.03,1465.98"/>
    </edge>
    <edge id=":11130385_0" function="internal">
        <lane id=":11130385_0_0" index="0" speed="13.65" length="2.77" shape="469.50,1179.14 469.67,1178.40 469.88,1177.92 470.13,1177.46 470.45,1176.76"/>
        <lane id=":11130385_0_1" index="1" speed="13.65" length="2.77" shape="466.40,1178.31 466.59,1177.46 466.82,1176.91 467.11,1176.37 467.48,1175.57"/>
    </edge>
    <edge id=":12201683_0" function="internal">
        <lane id=":12201683_0_0" index="0" disallow="tram rail_urban rail rail_electric bicycle pedestrian ship" speed="8.22" length="1.46" shape="301.07,1409.14 300.78,1409.72 300.63,1410.14 300.56,1410.58 300.54,1411.23"/>
        <lane id=":12201683_0_1" index="1" disallow="tram rail_urban rail rail_electric bicycle pedestrian ship" speed="13.41" length="1.46" shape="303.92,1410.60 303.82,1410.79 303.77,1410.93 303.75,1411.08 303.74,1411.30"/>
    </edge>
    <edge id=":12201724_0" function="internal">
        <lane id=":12201724_0_0" index="0" speed="13.89" length="6.28" shape="337.01,1351.95 332.96,1353.82 331.58,1355.01"/>
    </edge>
    <edge id=":12201724_1" function="internal">
        <lane id=":12201724_1_0" index="0" speed="13.89" length="5.62" shape="337.86,1355.04 334.45,1356.66 333.07,1357.89"/>
    </edge>
    <edge id=":12201724_7" function="internal">
        <lane id=":12201724_7_0" index="0" speed="13.89" length="16.68" shape="331.58,1355.01 329.06,1357.16 325.30,1361.98 321.69,1368.27"/>
    </edge>
    <edge id=":12201724_8" function="internal">
        <lane id=":12201724_8_0" index="0" speed="13.89" length="14.67" shape="333.07,1357.89 331.10,1359.65 327.80,1364.00 324.55,1369.71"/>
    </edge>
    <edge id=":12201724_2" function="internal">
        <lane id=":12201724_2_0" index="0" speed="7.27" length="11.64" shape="320.57,1358.01 322.53,1359.57 323.38,1361.80 323.10,1364.70 321.69,1368.27"/>
    </edge>
    <edge id=":12201724_3" function="internal">
        <lane id=":12201724_3_0" index="0" speed="7.95" length="14.14" shape="320.57,1358.01 323.79,1360.19 325.53,1362.86 325.78,1366.04 324.55,1369.71"/>
    </edge>
    <edge id=":12201724_4" function="internal">
        <lane id=":12201724_4_0" index="0" speed="13.65" length="16.40" shape="321.97,1355.13 325.57,1357.97 327.08,1361.13 328.55,1364.34 332.05,1367.38"/>
        <lane id=":12201724_4_1" index="1" speed="13.65" length="16.40" shape="323.36,1352.25 327.01,1355.11 328.55,1358.28 330.05,1361.52 333.59,1364.57"/>
        <lane id=":12201724_4_2" index="2" speed="13.65" length="16.40" shape="324.76,1349.38 328.45,1352.26 330.02,1355.44 331.55,1358.69 335.13,1361.77"/>
    </edge>
    <edge id=":1693942242_0" function="internal">
        <lane id=":1693942242_0_0" index="0" disallow="tram rail_urban rail rail_electric ship" speed="13.41" length="0.27" shape="216.14,1313.70 216.21,1313.31"/>
        <lane id=":1693942242_0_1" index="1" disallow="tram rail_urban rail rail_electric ship" speed="13.41" length="0.27" shape="213.02,1313.00 213.04,1312.87"/>
    </edge>
    <edge id=":2014156889_0" function="internal">
        <lane id=":2014156889_0_0" index="0" disallow="tram rail_urban rail rail_electric bicycle pedestrian ship" speed="13.41" length="0.25" shape="459.17,1148.68 459.17,1148.87"/>
        <lane id=":2014156889_0_1" index="1" disallow="tram rail_urban rail rail_electric bicycle pedestrian ship" speed="13.41" length="0.25" shape="462.37,1148.58 462.37,1148.91"/>
    </edge>
    <edge id=":2075331942_0" function="internal">
        <lane id=":2075331942_0_0" index="0" disallow="tram rail_urban rail rail_electric bicycle pedestrian ship" speed="13.41" length="0.30" shape="607.95,1424.26 608.24,1424.36"/>
        <lane id=":2075331942_0_1" index="1" disallow="tram rail_urban rail rail_electric bicycle pedestrian ship" speed="13.41" length="0.30" shape="609.00,1421.24 609.28,1421.34"/>
        <lane id=":2075331942_0_2" index="2" disallow="tram rail_urban rail rail_electric bicycle pedestrian ship" speed="13.41" length="0.30" shape="610.05,1418.22 610.33,1418.31"/>
    </edge>
    <edge id=":2140465365_0" function="internal">
        <lane id=":2140465365_0_0" index="0" disallow="tram rail_urban rail rail_electric bicycle pedestrian ship" speed="13.41" length="0.31" shape="351.15,1333.25 351.01,1333.23 350.92,1333.22 350.82,1333.22 350.69,1333.22"/>
        <lane id=":2140465365_0_1" index="1" disallow="tram rail_urban rail rail_electric bicycle pedestrian ship" speed="13.41" length="0.31" shape="350.80,1336.43 350.75,1336.42 350.72,1336.42 350.69,1336.42 350.64,1336.42"/>
    </edge>
    <edge id=":2140472412_0" function="internal">
        <lane id=":2140472412_0_0" index="0" disallow="tram rail_urban rail rail_electric bicycle pedestrian ship" speed="13.41" length="0.29" shape="430.22,1327.96 430.35,1327.72"/>
        <lane id=":2140472412_0_1" index="1" disallow="tram rail_urban rail rail_electric bicycle pedestrian ship" speed="13.41" length="0.29" shape="427.40,1326.45 427.55,1326.18"/>
    </edge>
    <edge id=":2140482757_0" function="internal">
        <lane id=":2140482757_0_0" index="0" disallow="tram rail_urban rail rail_electric bicycle pedestrian ship" speed="13.41" length="3.30" shape="457.93,1109.98 457.97,1110.71 457.99,1111.20 457.98,1111.70 457.95,1112.43"/>
        <lane id=":2140482757_0_1" index="1" disallow="tram rail_urban rail rail_electric bicycle pedestrian ship" speed="13.41" length="3.30" shape="457.93,1109.98 461.15,1112.58"/>
    </edge>
    <edge id=":2140482757_2" function="internal">
        <lane id=":2140482757_2_0" index="0" disallow="tram rail_urban rail rail_electric bicycle pedestrian ship" speed="13.41" length="2.64" shape="457.93,1109.98 458.05,1112.44"/>
        <lane id=":2140482757_2_1" index="1" disallow="tram rail_urban rail rail_electric bicycle pedestrian ship" speed="13.41" length="2.64" shape="461.12,1109.78 461.25,1112.59"/>
    </edge>
    <edge id=":2140490244_0" function="internal">
        <lane id=":2140490244_0_0" index="0" disallow="tram rail_urban rail rail_electric bicycle pedestrian ship" speed="13.41" length="0.90" shape="332.09,1392.24 332.19,1392.15 332.26,1392.10 332.34,1392.05 332.46,1391.99"/>
        <lane id=":2140490244_0_1" index="1" disallow="tram rail_urban rail rail_electric bicycle pedestrian ship" speed="13.41" length="0.90" shape="329.97,1389.84 330.28,1389.58 330.50,1389.41 330.74,1389.27 331.10,1389.10"/>
    </edge>
    <edge id=":2140496747_0" function="internal">
        <lane id=":2140496747_0_0" index="0" disallow="tram rail_urban rail rail_electric bicycle pedestrian ship" speed="13.41" length="0.30" shape="373.53,1405.74 373.41,1406.02"/>
        <lane id=":2140496747_0_1" index="1" disallow="tram rail_urban rail rail_electric bicycle pedestrian ship" speed="13.41" length="0.30" shape="376.45,1407.05 376.33,1407.33"/>
        <lane id=":2140496747_0_2" index="2" disallow="tram rail_urban rail rail_electric bicycle pedestrian ship" speed="13.41" length="0.30" shape="379.37,1408.36 379.25,1408.64"/>
    </edge>
    <edge id=":2140510366_0" function="internal">
        <lane id=":2140510366_0_0" index="0" disallow="tram rail_urban rail rail_electric bicycle pedestrian ship" speed="13.41" length="0.25" shape="345.36,1342.39 345.06,1342.29"/>
        <lane id=":2140510366_0_1" index="1" disallow="tram rail_urban rail rail_electric bicycle pedestrian ship" speed="13.41" length="0.25" shape="344.31,1345.41 344.14,1345.36"/>
    </edge>
    <edge id=":2140514378_0" function="internal">
        <lane id=":2140514378_0_0" index="0" disallow="tram rail_urban rail rail_electric bicycle pedestrian ship" speed="13.41" length="0.29" shape="385.34,1564.77 385.42,1564.52"/>
        <lane id=":2140514378_0_1" index="1" disallow="tram rail_urban rail rail_electric bicycle pedestrian ship" speed="13.41" length="0.29" shape="382.29,1563.79 382.39,1563.49"/>
    </edge>
    <edge id=":2140546949_0" function="internal">
        <lane id=":2140546949_0_0" index="0" disallow="tram rail_urban rail rail_electric ship" speed="13.41" length="0.30" shape="205.82,1290.79 205.75,1291.07"/>
        <lane id=":2140546949_0_1" index="1" disallow="tram rail_urban rail rail_electric ship" speed="13.41" length="0.30" shape="208.93,1291.52 208.86,1291.82"/>
    </edge>
    <edge id=":2142198200_0" function="internal">
        <lane id=":2142198200_0_0" index="0" disallow="tram rail_urban rail rail_electric bicycle pedestrian ship" speed="13.41" length="0.10" shape="370.89,1535.83 370.89,1535.83"/>
        <lane id=":2142198200_0_1" index="1" disallow="tram rail_urban rail rail_electric bicycle pedestrian ship" speed="13.41" length="0.10" shape="367.69,1535.85 367.69,1535.85"/>
    </edge>
    <edge id=":2143334097_0" function="internal">
        <lane id=":2143334097_0_0" index="0" disallow="tram rail_urban rail rail_electric bicycle pedestrian ship" speed="13.41" length="0.30" shape="399.36,1477.23 399.32,1477.53"/>
        <lane id=":2143334097_0_1" index="1" disallow="tram rail_urban rail rail_electric bicycle pedestrian ship" speed="13.41" length="0.30" shape="402.52,1477.73 402.48,1478.03"/>
    </edge>
    <edge id=":2464441436_0" function="internal">
        <lane id=":2464441436_0_0" index="0" disallow="tram rail_urban rail rail_electric bicycle pedestrian ship" speed="13.41" length="7.67" shape="378.09,1583.40 378.79,1581.30 379.66,1580.01 380.60,1578.73 381.51,1576.69"/>
        <lane id=":2464441436_0_1" index="1" disallow="tram rail_urban rail rail_electric bicycle pedestrian ship" speed="13.41" length="7.67" shape="378.09,1583.40 378.31,1581.12 378.13,1579.52 378.02,1577.93 378.46,1575.72"/>
    </edge>
    <edge id=":262374840_0" function="internal">
        <lane id=":262374840_0_0" index="0" disallow="tram rail_urban rail rail_electric bicycle pedestrian ship" speed="3.65" length="4.67" shape="77.58,1314.57 76.29,1315.21 75.79,1315.96 76.09,1316.80 77.18,1317.75"/>
    </edge>
    <edge id=":262374853_0" function="internal">
        <lane id=":262374853_0_0" index="0" disallow="tram rail_urban rail rail_electric ship" speed="3.65" length="4.67" shape="298.21,1090.19 298.51,1088.78 298.23,1087.93 297.39,1087.64 295.97,1087.91"/>
    </edge>
    <edge id=":262374856_0" function="internal">
        <lane id=":262374856_0_0" index="0" disallow="tram rail_urban rail rail_electric ship" speed="13.41" length="0.49" shape="225.23,1207.64 225.11,1208.20"/>
        <lane id=":262374856_0_1" index="1" disallow="tram rail_urban rail rail_electric ship" speed="13.41" length="0.49" shape="228.34,1208.37 228.26,1208.77"/>
    </edge>
    <edge id=":262374856_2" function="internal">
        <lane id=":262374856_2_0" index="0" disallow="tram rail_urban rail rail_electric ship" speed="3.65" length="2.34" shape="228.34,1208.37 228.84,1209.72 229.53,1210.30"/>
    </edge>
    <edge id=":262374856_6" function="internal">
        <lane id=":262374856_6_0" index="0" speed="3.65" length="2.34" shape="229.53,1210.30 230.40,1210.09 231.45,1209.11"/>
    </edge>
    <edge id=":262374856_3" function="internal">
        <lane id=":262374856_3_0" index="0" disallow="tram rail_urban rail rail_electric ship" speed="13.41" length="0.17" shape="234.55,1209.92 234.57,1209.84"/>
        <lane id=":262374856_3_1" index="1" disallow="tram rail_urban rail rail_electric ship" speed="13.41" length="0.17" shape="231.40,1209.35 231.45,1209.11"/>
    </edge>
    <edge id=":262374856_5" function="internal">
        <lane id=":262374856_5_0" index="0" disallow="tram rail_urban rail rail_electric ship" speed="3.65" length="2.34" shape="231.40,1209.35 230.83,1208.02 230.12,1207.49"/>
    </edge>
    <edge id=":262374856_7" function="internal">
        <lane id=":262374856_7_0" index="0" speed="3.65" length="2.34" shape="230.12,1207.49 229.26,1207.74 228.26,1208.77"/>
    </edge>
    <edge id=":440394724_0" function="internal">
        <lane id=":440394724_0_0" index="0" disallow="tram rail_urban rail rail_electric bicycle pedestrian ship" speed="13.41" length="6.71" shape="312.65,1416.22 313.48,1414.51 314.43,1413.56 315.48,1412.64 316.60,1411.06"/>
        <lane id=":440394724_0_1" index="1" disallow="tram rail_urban rail rail_electric bicycle pedestrian ship" speed="13.41" length="6.71" shape="312.65,1416.22 313.05,1414.24 313.01,1412.79 313.08,1411.39 313.78,1409.55"/>
    </edge>
    <edge id=":440395986_0" function="internal">
        <lane id=":440395986_0_0" index="0" disallow="tram rail_urban rail rail_electric bicycle pedestrian ship" speed="13.41" length="7.76" shape="506.09,1387.42 508.16,1388.20 509.42,1389.11 510.66,1390.09 512.67,1391.05"/>
        <lane id=":440395986_0_1" index="1" disallow="tram rail_urban rail rail_electric bicycle pedestrian ship" speed="13.41" length="7.76" shape="506.09,1387.42 508.34,1387.73 509.95,1387.60 511.53,1387.53 513.72,1388.03"/>
        <lane id=":440395986_0_2" index="2" disallow="tram rail_urban rail rail_electric bicycle pedestrian ship" speed="13.41" length="7.76" shape="506.86,1384.32 509.20,1384.64 510.86,1384.53 512.50,1384.48 514.78,1385.00"/>
    </edge>
    <edge id=":440396065_0" function="internal">
        <lane id=":440396065_0_0" index="0" disallow="tram rail_urban rail rail_electric bicycle pedestrian ship" speed="13.41" length="14.33" shape="345.82,1385.69 349.38,1383.36 351.72,1381.17 354.17,1379.76 358.02,1379.78"/>
        <lane id=":440396065_0_1" index="1" disallow="tram rail_urban rail rail_electric bicycle pedestrian ship" speed="13.41" length="14.33" shape="345.78,1382.17 349.49,1379.86 352.00,1377.79 354.61,1376.53 358.62,1376.64"/>
    </edge>
    <edge id=":440396065_2" function="internal">
        <lane id=":440396065_2_0" index="0" disallow="tram rail_urban rail rail_electric bicycle pedestrian ship" speed="13.65" length="11.30" shape="346.64,1375.38 349.83,1377.14 352.09,1378.25 354.46,1379.02 358.02,1379.78"/>
        <lane id=":440396065_2_1" index="1" disallow="tram rail_urban rail rail_electric bicycle pedestrian ship" speed="13.65" length="11.30" shape="348.18,1372.57 351.11,1374.19 353.18,1375.22 355.36,1375.94 358.62,1376.64"/>
        <lane id=":440396065_2_2" index="2" disallow="tram rail_urban rail rail_electric bicycle pedestrian ship" speed="13.65" length="11.30" shape="349.71,1369.77 352.39,1371.25 354.27,1372.19 356.26,1372.85 359.23,1373.50"/>
    </edge>
    <edge id=":440397370_0" function="internal">
        <lane id=":440397370_0_0" index="0" disallow="tram rail_urban rail rail_electric bicycle pedestrian ship" speed="13.65" length="3.21" shape="316.09,1379.38 319.09,1380.60"/>
        <lane id=":440397370_0_1" index="1" disallow="tram rail_urban rail rail_electric bicycle pedestrian ship" speed="13.65" length="3.21" shape="318.95,1380.82 321.67,1382.48"/>
    </edge>
    <edge id=":440398340_0" function="internal">
        <lane id=":440398340_0_0" index="0" disallow="tram rail_urban rail rail_electric bicycle pedestrian ship" speed="13.65" length="21.64" shape="377.85,1486.18 375.20,1480.39 372.23,1476.25 369.98,1472.05 369.53,1466.05"/>
        <lane id=":440398340_0_1" index="1" disallow="tram rail_urban rail rail_electric bicycle pedestrian ship" speed="13.65" length="21.64" shape="374.79,1487.09 373.11,1481.21 372.28,1476.88 372.19,1472.47 372.71,1466.39"/>
    </edge>
    <edge id=":440398340_2" function="internal">
        <lane id=":440398340_2_0" index="0" disallow="tram rail_urban rail rail_electric bicycle pedestrian ship" speed="13.41" length="21.62" shape="371.16,1487.54 370.93,1481.37 370.10,1476.78 369.39,1472.20 369.53,1466.05"/>
        <lane id=":440398340_2_1" index="1" disallow="tram rail_urban rail rail_electric bicycle pedestrian ship" speed="13.41" length="21.62" shape="367.97,1487.41 368.73,1481.31 370.09,1476.88 371.58,1472.47 372.71,1466.39"/>
    </edge>
    <edge id=":440399329_0" function="internal">
        <lane id=":440399329_0_0" index="0" disallow="tram rail_urban rail rail_electric bicycle pedestrian ship" speed="13.41" length="8.02" shape="384.75,1386.57 383.34,1388.51 382.08,1389.64 380.86,1390.79 379.58,1392.80"/>
        <lane id=":440399329_0_1" index="1" disallow="tram rail_urban rail rail_electric bicycle pedestrian ship" speed="13.41" length="8.02" shape="384.75,1386.57 383.80,1388.72 383.51,1390.35 383.28,1392.01 382.45,1394.23"/>
        <lane id=":440399329_0_2" index="2" disallow="tram rail_urban rail rail_electric bicycle pedestrian ship" speed="13.41" length="8.02" shape="387.52,1388.18 386.59,1390.28 386.33,1391.87 386.11,1393.49 385.31,1395.65"/>
    </edge>
    <edge id=":440399362_0" function="internal">
        <lane id=":440399362_0_0" index="0" disallow="tram rail_urban rail rail_electric bicycle pedestrian ship" speed="13.41" length="3.21" shape="394.32,1393.29 391.59,1391.59"/>
        <lane id=":440399362_0_1" index="1" disallow="tram rail_urban rail rail_electric bicycle pedestrian ship" speed="13.41" length="3.21" shape="391.38,1392.02 394.39,1393.15"/>
    </edge>
    <edge id=":440400209_0" function="internal">
        <lane id=":440400209_0_0" index="0" speed="13.65" length="70.89" shape="340.39,1333.08 328.27,1330.51 309.87,1324.77 289.65,1318.48 272.03,1314.27"/>
        <lane id=":440400209_0_1" index="1" speed="13.65" length="70.89" shape="339.97,1336.27 327.84,1333.70 309.42,1327.95 289.17,1321.65 271.54,1317.43"/>
        <lane id=":440400209_0_2" index="2" speed="13.65" length="70.89" shape="339.97,1336.27 327.76,1334.19 309.17,1329.53 288.75,1324.31 271.05,1320.59"/>
    </edge>
    <edge id=":440400209_3" function="internal">
        <lane id=":440400209_3_0" index="0" speed="13.65" length="71.28" shape="339.12,1340.50 327.38,1335.61 309.40,1327.45 289.51,1319.25 272.03,1314.27"/>
        <lane id=":440400209_3_1" index="1" speed="13.65" length="71.28" shape="339.12,1340.50 327.30,1336.11 309.15,1329.03 289.10,1321.92 271.54,1317.43"/>
        <lane id=":440400209_3_2" index="2" speed="13.65" length="71.28" shape="339.12,1340.50 327.23,1336.60 308.91,1330.61 288.68,1324.59 271.05,1320.59"/>
        <lane id=":440400209_3_3" index="3" speed="13.65" length="71.28" shape="338.20,1343.56 326.37,1339.68 308.20,1333.72 288.12,1327.73 270.56,1323.75"/>
    </edge>
    <edge id=":440400851_0" function="internal">
        <lane id=":440400851_0_0" index="0" disallow="tram rail_urban rail rail_electric bicycle pedestrian ship" speed="13.41" length="0.83" shape="389.39,1351.06 389.33,1351.06 389.29,1351.06 389.25,1351.05 389.19,1351.04"/>
        <lane id=":440400851_0_1" index="1" disallow="tram rail_urban rail rail_electric bicycle pedestrian ship" speed="13.41" length="0.83" shape="389.20,1354.26 389.02,1354.25 388.89,1354.23 388.77,1354.21 388.58,1354.18"/>
        <lane id=":440400851_0_2" index="2" disallow="tram rail_urban rail rail_electric bicycle pedestrian ship" speed="13.41" length="0.83" shape="389.01,1357.45 388.70,1357.43 388.49,1357.41 388.28,1357.38 387.98,1357.32"/>
        <lane id=":440400851_0_3" index="3" disallow="tram rail_urban rail rail_electric bicycle pedestrian ship" speed="13.41" length="0.83" shape="388.82,1360.65 388.39,1360.62 388.09,1360.59 387.80,1360.55 387.38,1360.47"/>
    </edge>
    <edge id=":440403197_0" function="internal">
        <lane id=":440403197_0_0" index="0" disallow="tram rail_urban rail rail_electric bicycle pedestrian ship" speed="13.41" length="2.70" shape="422.71,1420.74 422.88,1419.96 423.01,1419.43 423.18,1418.90 423.43,1418.15"/>
    </edge>
    <edge id=":440403197_1" function="internal">
        <lane id=":440403197_1_0" index="0" disallow="tram rail_urban rail rail_electric bicycle pedestrian ship" speed="13.41" length="4.27" shape="422.71,1420.74 420.39,1417.15"/>
    </edge>
    <edge id=":440403197_2" function="internal">
        <lane id=":440403197_2_0" index="0" disallow="tram rail_urban rail rail_electric bicycle pedestrian ship" speed="13.41" length="2.91" shape="422.71,1420.74 423.13,1418.05"/>
        <lane id=":440403197_2_1" index="1" disallow="tram rail_urban rail rail_electric bicycle pedestrian ship" speed="13.41" length="2.91" shape="419.58,1420.10 420.03,1417.04"/>
    </edge>
    <edge id=":440827486_0" function="internal">
        <lane id=":440827486_0_0" index="0" disallow="tram rail_urban rail rail_electric ship" speed="13.41" length="5.65" shape="218.39,1245.01 218.06,1246.51 217.71,1247.49 217.22,1248.44 216.49,1249.79"/>
        <lane id=":440827486_0_1" index="1" disallow="tram rail_urban rail rail_electric ship" speed="13.41" length="5.65" shape="221.54,1245.59 221.16,1247.36 220.76,1248.53 220.19,1249.65 219.34,1251.26"/>
    </edge>
    <edge id=":440827486_2" function="internal">
        <lane id=":440827486_2_0" index="0" disallow="tram rail_urban rail rail_electric ship" speed="13.41" length="10.75" shape="225.93,1257.02 227.83,1246.74"/>
        <lane id=":440827486_2_1" index="1" disallow="tram rail_urban rail rail_electric ship" speed="13.41" length="10.75" shape="222.65,1257.01 224.69,1246.16"/>
    </edge>
    <edge id=":440827597_0" function="internal">
        <lane id=":440827597_0_0" index="0" disallow="tram rail_urban rail rail_electric ship" speed="13.41" length="0.30" shape="202.18,1306.10 202.12,1306.40"/>
        <lane id=":440827597_0_1" index="1" disallow="tram rail_urban rail rail_electric ship" speed="13.41" length="0.30" shape="205.30,1306.80 205.24,1307.09"/>
    </edge>
    <edge id=":440827997_0" function="internal">
        <lane id=":440827997_0_0" index="0" disallow="tram rail_urban rail rail_electric bicycle pedestrian ship" speed="13.41" length="0.30" shape="220.64,1339.38 220.97,1339.43"/>
        <lane id=":440827997_0_1" index="1" disallow="tram rail_urban rail rail_electric bicycle pedestrian ship" speed="13.41" length="0.30" shape="221.07,1336.21 221.38,1336.26"/>
        <lane id=":440827997_0_2" index="2" disallow="tram rail_urban rail rail_electric bicycle pedestrian ship" speed="13.41" length="0.30" shape="221.51,1333.04 221.79,1333.08"/>
        <lane id=":440827997_0_3" index="3" disallow="tram rail_urban rail rail_electric bicycle pedestrian ship" speed="13.41" length="0.30" shape="221.95,1329.87 222.21,1329.91"/>
    </edge>
    <edge id=":440828223_0" function="internal">
        <lane id=":440828223_0_0" index="0" disallow="tram rail_urban rail rail_electric ship" speed="13.41" length="24.38" shape="225.43,1299.75 222.94,1293.60 221.25,1288.39 220.67,1283.09 221.50,1276.67"/>
        <lane id=":440828223_0_1" index="1" disallow="tram rail_urban rail rail_electric ship" speed="13.41" length="24.38" shape="222.09,1300.03 219.64,1293.73 218.02,1288.18 217.51,1282.54 218.38,1275.97"/>
    </edge>
    <edge id=":440828223_2" function="internal">