<?xml version="1.0" encoding="UTF-8"?>

<!-- generated on 03/17/19 18:23:54 by Eclipse SUMO netedit Version 1.0.1
<configuration xmlns:xsi="http://www.w3.org/2001/XMLSchema-instance" xsi:noNamespaceSchemaLocation="http://sumo.dlr.de/xsd/netconvertConfiguration.xsd">

    <input>
        <sumo-net-file value="C:\Users\Sam\OneDrive\_University\Year%204\Individual%20Project\SUMOIntersectionResearch\maps\BlackwellTunnelNorthApproach\BlackwellTunnelNorthApproach.net.xml"/>
    </input>

    <output>
        <output-file value="C:\Users\Sam\OneDrive\_University\Year%204\Individual%20Project\SUMOIntersectionResearch\maps\BlackwellTunnelNorthApproach\BlackwellTunnelNorthApproach.net.xml"/>
        <output.street-names value="true"/>
    </output>

    <processing>
        <offset.disable-normalization value="true"/>
        <lefthand value="true"/>
    </processing>

    <junctions>
        <no-turnarounds value="true"/>
        <junctions.corner-detail value="5"/>
        <junctions.limit-turn-speed value="5.5"/>
        <rectangular-lane-cut value="false"/>
    </junctions>

    <pedestrian>
        <walkingareas value="false"/>
    </pedestrian>

</configuration>
-->

<net version="1.0" junctionCornerDetail="5" lefthand="true" limitTurnSpeed="5.50" xmlns:xsi="http://www.w3.org/2001/XMLSchema-instance" xsi:noNamespaceSchemaLocation="http://sumo.dlr.de/xsd/net_file.xsd">

    <location netOffset="-707223.42,-5709593.93" convBoundary="77.38,0.00,1124.15,1760.46" origBoundary="-0.013416,51.499038,0.003102,51.515108" projParameter="+proj=utm +zone=30 +ellps=WGS84 +datum=WGS84 +units=m +no_defs"/>

    <type id="highway.bridleway" priority="1" numLanes="1" speed="2.78" allow="pedestrian" oneway="1" width="2.00"/>
    <type id="highway.bus_guideway" priority="1" numLanes="1" speed="27.78" allow="bus" oneway="1"/>
    <type id="highway.cycleway" priority="1" numLanes="1" speed="8.33" allow="bicycle" oneway="0" width="1.00"/>
    <type id="highway.footway" priority="1" numLanes="1" speed="2.78" allow="pedestrian" oneway="1" width="2.00"/>
    <type id="highway.ford" priority="1" numLanes="1" speed="2.78" allow="army" oneway="0"/>
    <type id="highway.living_street" priority="3" numLanes="1" speed="2.78" disallow="tram rail_urban rail rail_electric ship" oneway="0"/>
    <type id="highway.motorway" priority="13" numLanes="2" speed="44.44" allow="private emergency authority army vip passenger hov taxi bus coach delivery truck trailer motorcycle evehicle custom1 custom2" oneway="1"/>
    <type id="highway.motorway_link" priority="12" numLanes="1" speed="22.22" allow="private emergency authority army vip passenger hov taxi bus coach delivery truck trailer motorcycle evehicle custom1 custom2" oneway="1"/>
    <type id="highway.path" priority="1" numLanes="1" speed="2.78" allow="bicycle pedestrian" oneway="1" width="2.00"/>
    <type id="highway.pedestrian" priority="1" numLanes="1" speed="2.78" allow="pedestrian" oneway="1" width="2.00"/>
    <type id="highway.primary" priority="9" numLanes="2" speed="27.78" disallow="tram rail_urban rail rail_electric ship" oneway="0"/>
    <type id="highway.primary_link" priority="8" numLanes="1" speed="22.22" disallow="tram rail_urban rail rail_electric ship" oneway="0"/>
    <type id="highway.raceway" priority="14" numLanes="2" speed="83.33" allow="vip" oneway="0"/>
    <type id="highway.residential" priority="4" numLanes="1" speed="13.89" disallow="tram rail_urban rail rail_electric ship" oneway="0"/>
    <type id="highway.secondary" priority="7" numLanes="2" speed="27.78" disallow="tram rail_urban rail rail_electric ship" oneway="0"/>
    <type id="highway.secondary_link" priority="6" numLanes="1" speed="22.22" disallow="tram rail_urban rail rail_electric ship" oneway="0"/>
    <type id="highway.service" priority="2" numLanes="1" speed="5.56" allow="delivery bicycle pedestrian" oneway="0"/>
    <type id="highway.stairs" priority="1" numLanes="1" speed="1.39" allow="pedestrian" oneway="1" width="2.00"/>
    <type id="highway.step" priority="1" numLanes="1" speed="1.39" allow="pedestrian" oneway="1" width="2.00"/>
    <type id="highway.steps" priority="1" numLanes="1" speed="1.39" allow="pedestrian" oneway="1" width="2.00"/>
    <type id="highway.tertiary" priority="6" numLanes="1" speed="22.22" disallow="tram rail_urban rail rail_electric ship" oneway="0"/>
    <type id="highway.tertiary_link" priority="5" numLanes="1" speed="22.22" disallow="tram rail_urban rail rail_electric ship" oneway="0"/>
    <type id="highway.track" priority="1" numLanes="1" speed="5.56" disallow="tram rail_urban rail rail_electric ship" oneway="0"/>
    <type id="highway.trunk" priority="11" numLanes="2" speed="27.78" disallow="tram rail_urban rail rail_electric bicycle pedestrian ship" oneway="0"/>
    <type id="highway.trunk_link" priority="10" numLanes="1" speed="22.22" disallow="tram rail_urban rail rail_electric bicycle pedestrian ship" oneway="0"/>
    <type id="highway.unclassified" priority="5" numLanes="1" speed="13.89" disallow="tram rail_urban rail rail_electric ship" oneway="0"/>
    <type id="highway.unsurfaced" priority="1" numLanes="1" speed="8.33" disallow="tram rail_urban rail rail_electric ship" oneway="0"/>
    <type id="railway.light_rail" priority="15" numLanes="1" speed="27.78" allow="rail_urban" oneway="1"/>
    <type id="railway.preserved" priority="15" numLanes="1" speed="27.78" allow="rail" oneway="1"/>
    <type id="railway.rail" priority="15" numLanes="1" speed="83.33" allow="rail rail_electric" oneway="1"/>
    <type id="railway.subway" priority="15" numLanes="1" speed="27.78" allow="rail_urban" oneway="1"/>
    <type id="railway.tram" priority="15" numLanes="1" speed="13.89" allow="tram" oneway="1"/>

    <edge id=":11060852_0" function="internal">
        <lane id=":11060852_0_0" index="0" disallow="tram rail_urban rail rail_electric bicycle pedestrian ship" speed="13.41" length="26.01" shape="373.10,1621.71 378.38,1596.36"/>
        <lane id=":11060852_0_1" index="1" disallow="tram rail_urban rail rail_electric bicycle pedestrian ship" speed="13.41" length="26.01" shape="369.94,1621.17 375.27,1595.58"/>
    </edge>
    <edge id=":11060852_2" function="internal">
        <lane id=":11060852_2_0" index="0" disallow="tram rail_urban rail rail_electric bicycle pedestrian ship" speed="13.41" length="26.24" shape="369.94,1621.17 371.07,1613.04 371.39,1607.00 371.28,1601.51 371.13,1595.02"/>
    </edge>
    <edge id=":11060852_3" function="internal">
        <lane id=":11060852_3_0" index="0" disallow="tram rail_urban rail rail_electric bicycle pedestrian ship" speed="13.41" length="25.81" shape="366.79,1620.62 367.89,1612.66 368.19,1606.75 368.08,1601.35 367.93,1594.90"/>
    </edge>
    <edge id=":11130382_0" function="internal">
        <lane id=":11130382_0_0" index="0" disallow="tram rail_urban rail rail_electric bicycle pedestrian ship" speed="13.65" length="32.34" shape="363.52,1432.10 361.16,1440.36 359.18,1449.70 357.30,1458.04 355.23,1463.29"/>
    </edge>
    <edge id=":11130382_1" function="internal">
        <lane id=":11130382_1_0" index="0" speed="13.89" length="32.92" shape="363.52,1432.10 361.64,1439.74 360.91,1448.19 360.74,1456.75 360.59,1464.75"/>
    </edge>
    <edge id=":11130382_2" function="internal">
        <lane id=":11130382_2_0" index="0" speed="13.89" length="31.92" shape="366.52,1433.22 364.67,1440.72 364.00,1448.82 363.91,1457.05 363.79,1464.89"/>
    </edge>
    <edge id=":2014156889_0" function="internal">
        <lane id=":2014156889_0_0" index="0" disallow="tram rail_urban rail rail_electric bicycle pedestrian ship" speed="13.41" length="0.28" shape="459.17,1148.67 459.17,1148.92"/>
        <lane id=":2014156889_0_1" index="1" disallow="tram rail_urban rail rail_electric bicycle pedestrian ship" speed="13.41" length="0.28" shape="462.36,1148.57 462.37,1148.88"/>
    </edge>
    <edge id=":2075331942_0" function="internal">
        <lane id=":2075331942_0_0" index="0" disallow="tram rail_urban rail rail_electric bicycle pedestrian ship" speed="13.41" length="0.30" shape="607.95,1424.26 608.24,1424.36"/>
        <lane id=":2075331942_0_1" index="1" disallow="tram rail_urban rail rail_electric bicycle pedestrian ship" speed="13.41" length="0.30" shape="609.00,1421.24 609.28,1421.34"/>
        <lane id=":2075331942_0_2" index="2" disallow="tram rail_urban rail rail_electric bicycle pedestrian ship" speed="13.41" length="0.30" shape="610.05,1418.22 610.33,1418.31"/>
    </edge>
    <edge id=":2140472412_0" function="internal">
        <lane id=":2140472412_0_0" index="0" speed="13.65" length="3.35" shape="435.98,1317.17 436.53,1316.22 436.94,1315.58 437.27,1314.91 437.62,1313.88"/>
        <lane id=":2140472412_0_1" index="1" speed="13.65" length="3.35" shape="433.16,1315.67 433.62,1314.90 433.96,1314.38 434.25,1313.84 434.54,1313.01"/>
    </edge>
    <edge id=":2140482757_0" function="internal">
        <lane id=":2140482757_0_0" index="0" disallow="tram rail_urban rail rail_electric bicycle pedestrian ship" speed="13.41" length="3.30" shape="457.93,1109.98 457.97,1110.71 457.99,1111.20 457.98,1111.70 457.95,1112.43"/>
        <lane id=":2140482757_0_1" index="1" disallow="tram rail_urban rail rail_electric bicycle pedestrian ship" speed="13.41" length="3.30" shape="457.93,1109.98 461.15,1112.58"/>
    </edge>
    <edge id=":2140482757_2" function="internal">
        <lane id=":2140482757_2_0" index="0" disallow="tram rail_urban rail rail_electric bicycle pedestrian ship" speed="13.41" length="2.64" shape="457.93,1109.98 458.05,1112.44"/>
        <lane id=":2140482757_2_1" index="1" disallow="tram rail_urban rail rail_electric bicycle pedestrian ship" speed="13.41" length="2.64" shape="461.12,1109.78 461.25,1112.59"/>
    </edge>
    <edge id=":2140514378_0" function="internal">
        <lane id=":2140514378_0_0" index="0" disallow="tram rail_urban rail rail_electric bicycle pedestrian ship" speed="13.41" length="0.28" shape="391.99,1543.26 392.07,1542.96"/>
        <lane id=":2140514378_0_1" index="1" disallow="tram rail_urban rail rail_electric bicycle pedestrian ship" speed="13.41" length="0.28" shape="388.90,1542.43 388.96,1542.18"/>
    </edge>
    <edge id=":2142198200_0" function="internal">
        <lane id=":2142198200_0_0" index="0" disallow="tram rail_urban rail rail_electric bicycle pedestrian ship" speed="13.41" length="0.10" shape="370.89,1535.83 370.89,1535.83"/>
        <lane id=":2142198200_0_1" index="1" disallow="tram rail_urban rail rail_electric bicycle pedestrian ship" speed="13.41" length="0.10" shape="367.69,1535.85 367.69,1535.85"/>
    </edge>
    <edge id=":2464441436_0" function="internal">
        <lane id=":2464441436_0_0" index="0" disallow="tram rail_urban rail rail_electric bicycle pedestrian ship" speed="13.41" length="0.28" shape="386.86,1562.35 386.92,1562.11"/>
        <lane id=":2464441436_0_1" index="1" disallow="tram rail_urban rail rail_electric bicycle pedestrian ship" speed="13.41" length="0.28" shape="383.75,1561.58 383.83,1561.28"/>
    </edge>
    <edge id=":262374856_0" function="internal">
        <lane id=":262374856_0_0" index="0" disallow="tram rail_urban rail rail_electric ship" speed="13.41" length="0.49" shape="225.23,1207.64 225.11,1208.20"/>
        <lane id=":262374856_0_1" index="1" disallow="tram rail_urban rail rail_electric ship" speed="13.41" length="0.49" shape="228.34,1208.37 228.26,1208.77"/>
    </edge>
    <edge id=":262374856_2" function="internal">
        <lane id=":262374856_2_0" index="0" disallow="tram rail_urban rail rail_electric ship" speed="13.41" length="0.17" shape="234.55,1209.92 234.57,1209.84"/>
        <lane id=":262374856_2_1" index="1" disallow="tram rail_urban rail rail_electric ship" speed="13.41" length="0.17" shape="231.40,1209.35 231.45,1209.11"/>
    </edge>
    <edge id=":440394724_0" function="internal">
        <lane id=":440394724_0_0" index="0" disallow="tram rail_urban rail rail_electric bicycle pedestrian ship" speed="8.35" length="4.77" shape="312.14,1417.77 312.52,1416.68 312.89,1415.97 313.44,1415.38 314.33,1414.66"/>
        <lane id=":440394724_0_1" index="1" disallow="tram rail_urban rail rail_electric bicycle pedestrian ship" speed="9.93" length="4.77" shape="312.14,1417.77 312.36,1412.13"/>
    </edge>
    <edge id=":440395986_0" function="internal">
        <lane id=":440395986_0_0" index="0" disallow="tram rail_urban rail rail_electric bicycle pedestrian ship" speed="13.41" length="7.76" shape="506.09,1387.42 508.16,1388.20 509.42,1389.11 510.66,1390.09 512.67,1391.05"/>
        <lane id=":440395986_0_1" index="1" disallow="tram rail_urban rail rail_electric bicycle pedestrian ship" speed="13.41" length="7.76" shape="506.09,1387.42 508.34,1387.73 509.95,1387.60 511.53,1387.53 513.72,1388.03"/>
        <lane id=":440395986_0_2" index="2" disallow="tram rail_urban rail rail_electric bicycle pedestrian ship" speed="13.41" length="7.76" shape="506.86,1384.32 509.20,1384.64 510.86,1384.53 512.50,1384.48 514.78,1385.00"/>
    </edge>
    <edge id=":440396065_0" function="internal">
        <lane id=":440396065_0_0" index="0" disallow="tram rail_urban rail rail_electric bicycle pedestrian ship" speed="12.19" length="14.70" shape="347.70,1388.65 352.26,1385.24 355.86,1382.85 358.51,1381.50 360.19,1381.18"/>
    </edge>
    <edge id=":440396065_1" function="internal">
        <lane id=":440396065_1_0" index="0" disallow="tram rail_urban rail rail_electric bicycle pedestrian ship" speed="13.18" length="17.27" shape="345.74,1386.12 350.86,1382.35 355.07,1379.74 358.35,1378.30 360.70,1378.02"/>
    </edge>
    <edge id=":440396065_2" function="internal">
        <lane id=":440396065_2_0" index="0" disallow="tram rail_urban rail rail_electric bicycle pedestrian ship" speed="13.65" length="15.03" shape="344.94,1381.74 349.34,1382.44 352.47,1381.86 355.65,1381.08 360.19,1381.18"/>
        <lane id=":440396065_2_1" index="1" disallow="tram rail_urban rail rail_electric bicycle pedestrian ship" speed="13.65" length="15.03" shape="345.89,1378.69 350.16,1379.35 353.21,1378.74 356.30,1377.94 360.70,1378.02"/>
        <lane id=":440396065_2_2" index="2" disallow="tram rail_urban rail rail_electric bicycle pedestrian ship" speed="13.65" length="15.03" shape="346.84,1375.63 350.98,1376.25 353.94,1375.62 356.94,1374.80 361.21,1374.87"/>
    </edge>
    <edge id=":440397370_0" function="internal">
        <lane id=":440397370_0_0" index="0" disallow="tram rail_urban rail rail_electric bicycle pedestrian ship" speed="13.65" length="3.30" shape="293.77,1411.72 293.70,1412.78 293.75,1413.51 293.85,1414.23 293.96,1415.29"/>
        <lane id=":440397370_0_1" index="1" disallow="tram rail_urban rail rail_electric bicycle pedestrian ship" speed="13.65" length="3.30" shape="296.95,1412.06 296.90,1412.95 296.95,1413.55 297.05,1414.16 297.15,1415.05"/>
    </edge>
    <edge id=":440398340_0" function="internal">
        <lane id=":440398340_0_0" index="0" disallow="tram rail_urban rail rail_electric bicycle pedestrian ship" speed="13.65" length="23.36" shape="377.79,1487.64 375.81,1481.51 373.96,1476.74 372.77,1471.91 372.79,1465.64"/>
        <lane id=":440398340_0_1" index="1" disallow="tram rail_urban rail rail_electric bicycle pedestrian ship" speed="13.65" length="23.36" shape="374.70,1488.44 372.70,1482.13 370.82,1476.96 369.60,1471.75 369.61,1465.30"/>
    </edge>
    <edge id=":440398340_2" function="internal">
        <lane id=":440398340_2_0" index="0" disallow="tram rail_urban rail rail_electric bicycle pedestrian ship" speed="13.41" length="23.34" shape="371.11,1488.81 372.79,1465.64"/>
        <lane id=":440398340_2_1" index="1" disallow="tram rail_urban rail rail_electric bicycle pedestrian ship" speed="13.41" length="23.34" shape="367.92,1488.68 369.61,1465.30"/>
    </edge>
    <edge id=":440399329_0" function="internal">
        <lane id=":440399329_0_0" index="0" speed="13.65" length="3.27" shape="374.65,1403.95 374.10,1404.84 373.69,1405.44 373.34,1406.07 372.93,1407.03"/>
        <lane id=":440399329_0_1" index="1" speed="13.65" length="3.27" shape="377.42,1405.56 376.94,1406.31 376.59,1406.82 376.28,1407.34 375.93,1408.16"/>
    </edge>
    <edge id=":440399362_0" function="internal">
        <lane id=":440399362_0_0" index="0" disallow="tram rail_urban rail rail_electric bicycle pedestrian ship" speed="13.41" length="0.32" shape="394.32,1393.29 394.33,1393.25 394.35,1393.22 394.36,1393.19 394.39,1393.15"/>
        <lane id=":440399362_0_1" index="1" disallow="tram rail_urban rail rail_electric bicycle pedestrian ship" speed="13.41" length="0.32" shape="391.38,1392.02 391.43,1391.89 391.48,1391.80 391.52,1391.72 391.59,1391.59"/>
    </edge>
    <edge id=":440400209_0" function="internal">
        <lane id=":440400209_0_0" index="0" speed="13.65" length="8.63" shape="335.15,1325.53 333.01,1325.32 331.76,1324.10 330.49,1322.64 328.33,1321.72"/>
        <lane id=":440400209_0_1" index="1" speed="13.65" length="8.63" shape="335.76,1328.67 333.34,1328.52 331.85,1327.31 330.35,1325.85 327.90,1324.89"/>
    </edge>
    <edge id=":440400209_2" function="internal">
        <lane id=":440400209_2_0" index="0" speed="13.89" length="9.73" shape="335.31,1333.93 332.84,1332.37 331.49,1330.59 330.10,1329.01 327.47,1328.06"/>
        <lane id=":440400209_2_1" index="1" speed="13.89" length="9.73" shape="334.16,1336.92 331.89,1335.43 330.70,1333.69 329.46,1332.15 327.04,1331.23"/>
    </edge>
    <edge id=":440403197_0" function="internal">
        <lane id=":440403197_0_0" index="0" disallow="tram rail_urban rail rail_electric bicycle pedestrian ship" speed="13.41" length="3.68" shape="404.02,1495.09 404.77,1492.21"/>
        <lane id=":440403197_0_1" index="1" disallow="tram rail_urban rail rail_electric bicycle pedestrian ship" speed="13.41" length="3.68" shape="404.02,1495.09 401.68,1491.38"/>
    </edge>
    <edge id=":440403197_2" function="internal">
        <lane id=":440403197_2_0" index="0" disallow="tram rail_urban rail rail_electric bicycle pedestrian ship" speed="13.41" length="3.01" shape="404.02,1495.09 404.69,1492.19"/>
        <lane id=":440403197_2_1" index="1" disallow="tram rail_urban rail rail_electric bicycle pedestrian ship" speed="13.41" length="3.01" shape="400.92,1494.32 401.60,1491.35"/>
    </edge>
    <edge id=":440827486_0" function="internal">
        <lane id=":440827486_0_0" index="0" disallow="tram rail_urban rail rail_electric ship" speed="13.41" length="0.10" shape="219.95,1236.48 219.97,1236.40"/>
        <lane id=":440827486_0_1" index="1" disallow="tram rail_urban rail rail_electric ship" speed="13.41" length="0.10" shape="223.10,1237.05 223.08,1237.16"/>
    </edge>
    <edge id=":440827486_2" function="internal">
        <lane id=":440827486_2_0" index="0" disallow="tram rail_urban rail rail_electric ship" speed="13.41" length="0.40" shape="229.29,1238.69 229.39,1238.20"/>
        <lane id=":440827486_2_1" index="1" disallow="tram rail_urban rail rail_electric ship" speed="13.41" length="0.40" shape="226.18,1237.92 226.24,1237.63"/>
    </edge>
    <edge id=":440828223_0" function="internal">
        <lane id=":440828223_0_0" index="0" disallow="tram rail_urban rail rail_electric ship" speed="13.41" length="23.19" shape="224.99,1298.65 222.59,1292.68 221.08,1287.85 220.65,1282.93 221.47,1276.66"/>
        <lane id=":440828223_0_1" index="1" disallow="tram rail_urban rail rail_electric ship" speed="13.41" length="23.19" shape="221.65,1298.93 219.28,1292.81 217.84,1287.66 217.48,1282.42 218.34,1276.02"/>
    </edge>
    <edge id=":440828223_2" function="internal">
        <lane id=":440828223_2_0" index="0" disallow="tram rail_urban rail rail_electric ship" speed="13.41" length="22.61" shape="217.59,1298.88 221.47,1276.66"/>
        <lane id=":440828223_2_1" index="1" disallow="tram rail_urban rail rail_electric ship" speed="13.41" length="22.61" shape="214.44,1298.34 218.34,1276.02"/>
    </edge>
    <edge id=":5344200991_0" function="internal">
        <lane id=":5344200991_0_0" index="0" disallow="tram rail_urban rail rail_electric bicycle pedestrian ship" speed="13.41" length="0.10" shape="106.33,1315.90 106.33,1315.90"/>
        <lane id=":5344200991_0_1" index="1" disallow="tram rail_urban rail rail_electric bicycle pedestrian ship" speed="13.41" length="0.10" shape="105.83,1319.06 105.83,1319.06"/>
    </edge>
    <edge id=":5344200991_2" function="internal">
        <lane id=":5344200991_2_0" index="0" disallow="tram rail_urban rail rail_electric bicycle pedestrian ship" speed="13.41" length="0.10" shape="104.83,1325.38 104.83,1325.38"/>
        <lane id=":5344200991_2_1" index="1" disallow="tram rail_urban rail rail_electric bicycle pedestrian ship" speed="13.41" length="0.10" shape="105.33,1322.22 105.33,1322.22"/>
    </edge>
    <edge id=":cluster_107489_107503_2140546941_4053161802_440827599_5344182303_5344182305_0" function="internal">
        <lane id=":cluster_107489_107503_2140546941_4053161802_440827599_5344182303_5344182305_0_0" index="0" disallow="tram rail_urban rail rail_electric bicycle pedestrian ship" speed="11.07" length="26.33" shape="200.07,1317.28 197.53,1322.78 193.13,1326.30 186.85,1327.84 178.69,1327.39"/>
    </edge>
    <edge id=":cluster_107489_107503_2140546941_4053161802_440827599_5344182303_5344182305_1" function="internal">
        <lane id=":cluster_107489_107503_2140546941_4053161802_440827599_5344182303_5344182305_1_0" index="0" disallow="tram rail_urban rail rail_electric bicycle pedestrian ship" speed="12.53" length="34.89" shape="200.07,1317.28 201.22,1324.69 206.80,1331.76 214.62,1337.55 222.50,1341.12"/>
    </edge>
    <edge id=":cluster_107489_107503_2140546941_4053161802_440827599_5344182303_5344182305_2" function="internal">
        <lane id=":cluster_107489_107503_2140546941_4053161802_440827599_5344182303_5344182305_2_0" index="0" disallow="tram rail_urban rail rail_electric bicycle pedestrian ship" speed="12.28" length="33.49" shape="200.07,1317.28 201.36,1324.22 207.26,1330.23 215.40,1334.96 223.42,1338.06"/>
    </edge>
    <edge id=":cluster_107489_107503_2140546941_4053161802_440827599_5344182303_5344182305_3" function="internal">
        <lane id=":cluster_107489_107503_2140546941_4053161802_440827599_5344182303_5344182305_3_0" index="0" disallow="tram rail_urban rail rail_electric bicycle pedestrian ship" speed="11.58" length="29.69" shape="203.23,1317.81 204.18,1324.19 209.30,1328.96 216.67,1332.46 224.34,1334.99"/>
    </edge>
    <edge id=":cluster_107489_107503_2140546941_4053161802_440827599_5344182303_5344182305_4" function="internal">
        <lane id=":cluster_107489_107503_2140546941_4053161802_440827599_5344182303_5344182305_4_0" index="0" disallow="tram rail_urban rail rail_electric bicycle pedestrian ship" speed="11.40" length="28.74" shape="203.23,1317.81 204.32,1323.71 209.76,1327.43 217.45,1329.87 225.27,1331.93"/>
    </edge>
    <edge id=":cluster_107489_107503_2140546941_4053161802_440827599_5344182303_5344182305_5" function="internal">
        <lane id=":cluster_107489_107503_2140546941_4053161802_440827599_5344182303_5344182305_5_0" index="0" disallow="tram rail_urban rail rail_electric bicycle pedestrian ship" speed="13.65" length="47.13" shape="225.11,1323.89 215.08,1325.30 201.90,1326.80 188.72,1327.72 178.69,1327.39"/>
        <lane id=":cluster_107489_107503_2140546941_4053161802_440827599_5344182303_5344182305_5_1" index="1" disallow="tram rail_urban rail rail_electric bicycle pedestrian ship" speed="13.65" length="47.13" shape="225.60,1327.05 215.41,1328.47 201.89,1329.96 188.38,1330.88 178.19,1330.55"/>
    </edge>
    <edge id=":cluster_107489_107503_2140546941_4053161802_440827599_5344182303_5344182305_7" function="internal">
        <lane id=":cluster_107489_107503_2140546941_4053161802_440827599_5344182303_5344182305_7_0" index="0" disallow="tram rail_urban rail rail_electric bicycle pedestrian ship" speed="13.41" length="46.75" shape="177.19,1336.87 185.74,1337.39 196.36,1337.42 208.73,1338.25 222.50,1341.12"/>
        <lane id=":cluster_107489_107503_2140546941_4053161802_440827599_5344182303_5344182305_7_1" index="1" disallow="tram rail_urban rail rail_electric bicycle pedestrian ship" speed="13.41" length="46.75" shape="177.19,1336.87 185.88,1336.91 196.83,1335.89 209.51,1335.66 223.42,1338.06"/>
        <lane id=":cluster_107489_107503_2140546941_4053161802_440827599_5344182303_5344182305_7_2" index="2" disallow="tram rail_urban rail rail_electric bicycle pedestrian ship" speed="13.41" length="46.75" shape="177.69,1333.71 186.45,1333.76 197.54,1332.78 210.36,1332.58 224.34,1334.99"/>
        <lane id=":cluster_107489_107503_2140546941_4053161802_440827599_5344182303_5344182305_7_3" index="3" disallow="tram rail_urban rail rail_electric bicycle pedestrian ship" speed="13.41" length="46.75" shape="177.69,1333.71 186.60,1333.28 198.00,1331.25 211.14,1330.00 225.27,1331.93"/>
    </edge>
    <edge id=":cluster_107489_107503_2140546941_4053161802_440827599_5344182303_5344182305_11" function="internal">
        <lane id=":cluster_107489_107503_2140546941_4053161802_440827599_5344182303_5344182305_11_0" index="0" disallow="tram rail_urban rail rail_electric ship" speed="13.35" length="40.95" shape="177.69,1333.71 187.30,1333.56 198.93,1330.96 209.03,1326.22 214.03,1319.64"/>
    </edge>
    <edge id=":cluster_107489_107503_2140546941_4053161802_440827599_5344182303_5344182305_12" function="internal">
        <lane id=":cluster_107489_107503_2140546941_4053161802_440827599_5344182303_5344182305_12_0" index="0" disallow="tram rail_urban rail rail_electric ship" speed="12.92" length="38.34" shape="177.69,1333.71 186.80,1333.48 197.35,1330.69 206.37,1325.77 210.88,1319.11"/>
    </edge>
    <edge id=":cluster_2026643264_2140465349_2140510370_2140510374_2140805075_4089151443_440396074_440398915_440398917_440403474_4525051431_0" function="internal">
        <lane id=":cluster_2026643264_2140465349_2140510370_2140510374_2140805075_4089151443_440396074_440398915_440398917_440403474_4525051431_0_0" index="0" disallow="tram rail_urban rail rail_electric bicycle pedestrian ship" speed="13.41" length="56.96" shape="452.67,1363.48 396.86,1351.56"/>
        <lane id=":cluster_2026643264_2140465349_2140510370_2140510374_2140805075_4089151443_440396074_440398915_440398917_440403474_4525051431_0_1" index="1" disallow="tram rail_urban rail rail_electric bicycle pedestrian ship" speed="13.41" length="56.96" shape="451.95,1366.60 396.23,1354.70"/>
        <lane id=":cluster_2026643264_2140465349_2140510370_2140510374_2140805075_4089151443_440396074_440398915_440398917_440403474_4525051431_0_2" index="2" disallow="tram rail_urban rail rail_electric bicycle pedestrian ship" speed="13.41" length="56.96" shape="451.23,1369.72 395.61,1357.84"/>
        <lane id=":cluster_2026643264_2140465349_2140510370_2140510374_2140805075_4089151443_440396074_440398915_440398917_440403474_4525051431_0_3" index="3" disallow="tram rail_urban rail rail_electric bicycle pedestrian ship" speed="13.41" length="56.96" shape="451.23,1369.72 394.98,1360.98"/>
    </edge>
    <edge id=":cluster_2026643264_2140465349_2140510370_2140510374_2140805075_4089151443_440396074_440398915_440398917_440403474_4525051431_4" function="internal">
        <lane id=":cluster_2026643264_2140465349_2140510370_2140510374_2140805075_4089151443_440396074_440398915_440398917_440403474_4525051431_4_0" index="0" disallow="tram rail_urban rail rail_electric bicycle pedestrian ship" speed="11.21" length="26.63" shape="432.51,1390.86 436.08,1382.61 440.22,1377.08 444.92,1374.28 450.19,1374.21"/>
    </edge>
    <edge id=":cluster_2026643264_2140465349_2140510370_2140510374_2140805075_4089151443_440396074_440398915_440398917_440403474_4525051431_5" function="internal">
        <lane id=":cluster_2026643264_2140465349_2140510370_2140510374_2140805075_4089151443_440396074_440398915_440398917_440403474_4525051431_5_0" index="0" disallow="tram rail_urban rail rail_electric bicycle pedestrian ship" speed="12.20" length="31.72" shape="429.36,1390.20 433.57,1380.63 438.56,1374.25 444.34,1371.08 450.91,1371.09"/>
    </edge>
    <edge id=":cluster_2026643264_2140465349_2140510370_2140510374_2140805075_4089151443_440396074_440398915_440398917_440403474_4525051431_6" function="internal">
        <lane id=":cluster_2026643264_2140465349_2140510370_2140510374_2140805075_4089151443_440396074_440398915_440398917_440403474_4525051431_6_0" index="0" disallow="tram rail_urban rail rail_electric bicycle pedestrian ship" speed="13.41" length="54.84" shape="426.29,1389.55 426.88,1375.61 422.17,1364.63 412.16,1356.62 396.86,1351.56"/>
    </edge>
    <edge id=":cluster_2026643264_2140465349_2140510370_2140510374_2140805075_4089151443_440396074_440398915_440398917_440403474_4525051431_7" function="internal">
        <lane id=":cluster_2026643264_2140465349_2140510370_2140510374_2140805075_4089151443_440396074_440398915_440398917_440403474_4525051431_7_0" index="0" disallow="tram rail_urban rail rail_electric bicycle pedestrian ship" speed="13.41" length="52.35" shape="426.29,1389.55 426.59,1376.98 421.69,1366.98 411.57,1359.56 396.23,1354.70"/>
    </edge>
    <edge id=":cluster_2026643264_2140465349_2140510370_2140510374_2140805075_4089151443_440396074_440398915_440398917_440403474_4525051431_8" function="internal">
        <lane id=":cluster_2026643264_2140465349_2140510370_2140510374_2140805075_4089151443_440396074_440398915_440398917_440403474_4525051431_8_0" index="0" disallow="tram rail_urban rail rail_electric bicycle pedestrian ship" speed="13.41" length="47.16" shape="423.15,1388.89 423.37,1377.75 418.85,1368.86 409.60,1362.22 395.61,1357.84"/>
    </edge>
    <edge id=":cluster_2026643264_2140465349_2140510370_2140510374_2140805075_4089151443_440396074_440398915_440398917_440403474_4525051431_9" function="internal">