<configuration>
   <input>
       <net-file value="A13NorthCircularRoundabout_no_TLS.net.xml"/>
       <route-files value="A13NorthCircularRoundabout_no_TLS.rou.xml"/>
	   <gui-settings-file value="gui.settings.xml"/>
   </input>
</configuration>