<?xml version="1.0" encoding="UTF-8"?>

<!-- generated on 04/24/19 18:19:12 by Eclipse SUMO netedit Version 1.0.1
<configuration xmlns:xsi="http://www.w3.org/2001/XMLSchema-instance" xsi:noNamespaceSchemaLocation="http://sumo.dlr.de/xsd/netconvertConfiguration.xsd">

    <input>
        <sumo-net-file value="C:\Users\Sam\OneDrive\_University\Year%204\Individual%20Project\SUMOIntersectionResearch\maps\A13NorthCircularRoundabout\A13NorthCircularRoundabout.net.xml"/>
    </input>

    <output>
        <output-file value="C:\Users\Sam\OneDrive\_University\Year%204\Individual%20Project\SUMOIntersectionResearch\maps\A13NorthCircularRoundabout\A13NorthCircularRoundabout.net.xml"/>
        <output.street-names value="true"/>
    </output>

    <processing>
        <offset.disable-normalization value="true"/>
        <lefthand value="false"/>
    </processing>

    <junctions>
        <no-turnarounds value="true"/>
        <junctions.corner-detail value="5"/>
        <junctions.limit-turn-speed value="5.5"/>
        <rectangular-lane-cut value="false"/>
    </junctions>

    <pedestrian>
        <walkingareas value="false"/>
    </pedestrian>

</configuration>
-->

<net version="1.0" junctionCornerDetail="5" limitTurnSpeed="5.50" xmlns:xsi="http://www.w3.org/2001/XMLSchema-instance" xsi:noNamespaceSchemaLocation="http://sumo.dlr.de/xsd/net_file.xsd">

    <location netOffset="-296102.65,-5711381.95" convBoundary="223.72,582.17,1524.16,1329.75" origBoundary="0.060928,51.516983,0.089584,51.540682" projParameter="+proj=utm +zone=31 +ellps=WGS84 +datum=WGS84 +units=m +no_defs"/>

    <type id="highway.bridleway" priority="1" numLanes="1" speed="2.78" allow="pedestrian" oneway="1" width="2.00"/>
    <type id="highway.bus_guideway" priority="1" numLanes="1" speed="27.78" allow="bus" oneway="1"/>
    <type id="highway.cycleway" priority="1" numLanes="1" speed="8.33" allow="bicycle" oneway="0" width="1.00"/>
    <type id="highway.footway" priority="1" numLanes="1" speed="2.78" allow="pedestrian" oneway="1" width="2.00"/>
    <type id="highway.ford" priority="1" numLanes="1" speed="2.78" allow="army" oneway="0"/>
    <type id="highway.living_street" priority="3" numLanes="1" speed="2.78" disallow="tram rail_urban rail rail_electric ship" oneway="0"/>
    <type id="highway.motorway" priority="13" numLanes="2" speed="44.44" allow="private emergency authority army vip passenger hov taxi bus coach delivery truck trailer motorcycle evehicle custom1 custom2" oneway="1"/>
    <type id="highway.motorway_link" priority="12" numLanes="1" speed="22.22" allow="private emergency authority army vip passenger hov taxi bus coach delivery truck trailer motorcycle evehicle custom1 custom2" oneway="1"/>
    <type id="highway.path" priority="1" numLanes="1" speed="2.78" allow="bicycle pedestrian" oneway="1" width="2.00"/>
    <type id="highway.pedestrian" priority="1" numLanes="1" speed="2.78" allow="pedestrian" oneway="1" width="2.00"/>
    <type id="highway.primary" priority="9" numLanes="2" speed="27.78" disallow="tram rail_urban rail rail_electric ship" oneway="0"/>
    <type id="highway.primary_link" priority="8" numLanes="1" speed="22.22" disallow="tram rail_urban rail rail_electric ship" oneway="0"/>
    <type id="highway.raceway" priority="14" numLanes="2" speed="83.33" allow="vip" oneway="0"/>
    <type id="highway.residential" priority="4" numLanes="1" speed="13.89" disallow="tram rail_urban rail rail_electric ship" oneway="0"/>
    <type id="highway.secondary" priority="7" numLanes="2" speed="27.78" disallow="tram rail_urban rail rail_electric ship" oneway="0"/>
    <type id="highway.secondary_link" priority="6" numLanes="1" speed="22.22" disallow="tram rail_urban rail rail_electric ship" oneway="0"/>
    <type id="highway.service" priority="2" numLanes="1" speed="5.56" allow="delivery bicycle pedestrian" oneway="0"/>
    <type id="highway.stairs" priority="1" numLanes="1" speed="1.39" allow="pedestrian" oneway="1" width="2.00"/>
    <type id="highway.step" priority="1" numLanes="1" speed="1.39" allow="pedestrian" oneway="1" width="2.00"/>
    <type id="highway.steps" priority="1" numLanes="1" speed="1.39" allow="pedestrian" oneway="1" width="2.00"/>
    <type id="highway.tertiary" priority="6" numLanes="1" speed="22.22" disallow="tram rail_urban rail rail_electric ship" oneway="0"/>
    <type id="highway.tertiary_link" priority="5" numLanes="1" speed="22.22" disallow="tram rail_urban rail rail_electric ship" oneway="0"/>
    <type id="highway.track" priority="1" numLanes="1" speed="5.56" disallow="tram rail_urban rail rail_electric ship" oneway="0"/>
    <type id="highway.trunk" priority="11" numLanes="2" speed="27.78" disallow="tram rail_urban rail rail_electric bicycle pedestrian ship" oneway="0"/>
    <type id="highway.trunk_link" priority="10" numLanes="1" speed="22.22" disallow="tram rail_urban rail rail_electric bicycle pedestrian ship" oneway="0"/>
    <type id="highway.unclassified" priority="5" numLanes="1" speed="13.89" disallow="tram rail_urban rail rail_electric ship" oneway="0"/>
    <type id="highway.unsurfaced" priority="1" numLanes="1" speed="8.33" disallow="tram rail_urban rail rail_electric ship" oneway="0"/>
    <type id="railway.light_rail" priority="15" numLanes="1" speed="27.78" allow="rail_urban" oneway="1"/>
    <type id="railway.preserved" priority="15" numLanes="1" speed="27.78" allow="rail" oneway="1"/>
    <type id="railway.rail" priority="15" numLanes="1" speed="83.33" allow="rail rail_electric" oneway="1"/>
    <type id="railway.subway" priority="15" numLanes="1" speed="27.78" allow="rail_urban" oneway="1"/>
    <type id="railway.tram" priority="15" numLanes="1" speed="13.89" allow="tram" oneway="1"/>

    <edge id=":105691065-AddedOnRampNode_0" function="internal">
        <lane id=":105691065-AddedOnRampNode_0_0" index="0" disallow="tram rail_urban rail rail_electric bicycle pedestrian ship" speed="22.35" length="8.06" shape="826.92,1189.53 826.46,1192.03 825.41,1193.61 824.35,1195.19 823.87,1197.68"/>
        <lane id=":105691065-AddedOnRampNode_0_1" index="1" disallow="tram rail_urban rail rail_electric bicycle pedestrian ship" speed="22.35" length="8.06" shape="823.72,1189.72 823.87,1197.68"/>
        <lane id=":105691065-AddedOnRampNode_0_2" index="2" disallow="tram rail_urban rail rail_electric bicycle pedestrian ship" speed="22.35" length="8.06" shape="820.52,1189.90 820.67,1197.68"/>
        <lane id=":105691065-AddedOnRampNode_0_3" index="3" disallow="tram rail_urban rail rail_electric bicycle pedestrian ship" speed="22.35" length="8.06" shape="817.32,1190.08 817.47,1197.68"/>
    </edge>
    <edge id=":1217158413_0" function="internal">
        <lane id=":1217158413_0_0" index="0" disallow="tram rail_urban rail rail_electric bicycle pedestrian ship" speed="22.35" length="15.33" shape="870.81,1081.11 871.74,1076.48 872.88,1073.43 874.34,1070.48 876.25,1066.10"/>
        <lane id=":1217158413_0_1" index="1" disallow="tram rail_urban rail rail_electric bicycle pedestrian ship" speed="22.35" length="15.33" shape="873.98,1081.57 874.88,1077.15 875.99,1074.25 877.40,1071.43 879.23,1067.26"/>
        <lane id=":1217158413_0_2" index="2" disallow="tram rail_urban rail rail_electric bicycle pedestrian ship" speed="22.35" length="15.33" shape="877.14,1082.04 878.01,1077.83 879.09,1075.07 880.46,1072.39 882.22,1068.42"/>
    </edge>
    <edge id=":1217158413_3" function="internal">
        <lane id=":1217158413_3_0" index="0" speed="11.76" length="14.19" shape="877.14,1082.04 878.00,1079.04 879.67,1076.20 882.15,1073.53 885.44,1071.03"/>
    </edge>
    <edge id=":132458_0" function="internal">
        <lane id=":132458_0_0" index="0" disallow="tram rail_urban rail rail_electric bicycle pedestrian ship" speed="22.35" length="21.00" shape="965.86,924.14 963.19,918.11 961.32,913.88 960.36,909.51 960.44,903.06"/>
        <lane id=":132458_0_1" index="1" disallow="tram rail_urban rail rail_electric bicycle pedestrian ship" speed="22.35" length="21.00" shape="969.03,923.47 966.44,917.69 964.58,913.65 963.59,909.48 963.63,903.30"/>
        <lane id=":132458_0_2" index="2" disallow="tram rail_urban rail rail_electric bicycle pedestrian ship" speed="13.10" length="21.00" shape="972.21,922.79 969.45,919.53 967.63,915.24 966.76,909.91 966.82,903.55"/>
        <lane id=":132458_0_3" index="3" disallow="tram rail_urban rail rail_electric bicycle pedestrian ship" speed="12.82" length="21.00" shape="976.13,921.96 973.10,918.59 971.07,914.44 970.04,909.51 970.01,903.80"/>
    </edge>
    <edge id=":132458_4" function="internal">
        <lane id=":132458_4_0" index="0" disallow="tram rail_urban rail rail_electric bicycle pedestrian ship" speed="22.35" length="21.40" shape="953.54,921.23 956.39,916.11 958.38,912.54 959.67,908.77 960.44,903.06"/>
        <lane id=":132458_4_1" index="1" disallow="tram rail_urban rail rail_electric bicycle pedestrian ship" speed="22.35" length="21.40" shape="953.54,921.23 957.00,916.02 960.05,912.69 962.38,909.15 963.63,903.30"/>
        <lane id=":132458_4_2" index="2" disallow="tram rail_urban rail rail_electric bicycle pedestrian ship" speed="22.35" length="21.40" shape="956.51,922.47 960.08,916.98 963.20,913.45 965.55,909.69 966.82,903.55"/>
        <lane id=":132458_4_3" index="3" disallow="tram rail_urban rail rail_electric bicycle pedestrian ship" speed="22.35" length="21.40" shape="959.47,923.70 963.17,917.95 966.35,914.21 968.72,910.24 970.01,903.80"/>
    </edge>
    <edge id=":132468_0" function="internal">
        <lane id=":132468_0_0" index="0" disallow="tram rail_urban rail rail_electric bicycle pedestrian ship" speed="22.35" length="38.58" shape="823.45,954.15 827.66,965.51 830.33,974.24 833.77,981.44 840.33,988.19"/>
        <lane id=":132468_0_1" index="1" disallow="tram rail_urban rail rail_electric bicycle pedestrian ship" speed="22.35" length="38.58" shape="820.53,955.45 824.66,966.81 827.17,975.59 830.46,982.84 836.95,989.62"/>
        <lane id=":132468_0_2" index="2" disallow="tram rail_urban rail rail_electric bicycle pedestrian ship" speed="22.35" length="38.58" shape="817.60,956.74 821.66,968.11 824.01,976.94 827.15,984.25 833.58,991.05"/>
    </edge>
    <edge id=":132468_3" function="internal">
        <lane id=":132468_3_0" index="0" disallow="tram rail_urban rail rail_electric bicycle pedestrian ship" speed="22.35" length="29.42" shape="814.67,958.03 817.94,966.76 819.50,973.63 820.26,979.85 821.16,986.58"/>
    </edge>
    <edge id=":132468_4" function="internal">
        <lane id=":132468_4_0" index="0" disallow="tram rail_urban rail rail_electric bicycle pedestrian ship" speed="22.35" length="28.64" shape="811.75,959.33 814.92,967.78 816.40,974.42 817.12,980.46 818.00,987.13"/>
    </edge>
    <edge id=":132469_0" function="internal">
        <lane id=":132469_0_0" index="0" disallow="tram rail_urban rail rail_electric bicycle pedestrian ship" speed="22.35" length="13.16" shape="815.61,932.02 816.05,935.21 816.42,937.40 817.06,939.51 818.28,942.47"/>
        <lane id=":132469_0_1" index="1" disallow="tram rail_urban rail rail_electric bicycle pedestrian ship" speed="22.35" length="13.16" shape="815.61,932.02 815.60,935.55 814.91,938.06 814.52,940.48 815.36,943.76"/>
        <lane id=":132469_0_2" index="2" disallow="tram rail_urban rail rail_electric bicycle pedestrian ship" speed="22.35" length="13.16" shape="812.44,932.49 812.47,936.27 811.83,938.95 811.49,941.54 812.43,945.06"/>
        <lane id=":132469_0_3" index="3" disallow="tram rail_urban rail rail_electric bicycle pedestrian ship" speed="22.35" length="13.16" shape="812.44,932.49 812.02,936.70 810.29,939.62 808.90,942.44 809.51,946.35"/>
        <lane id=":132469_0_4" index="4" disallow="tram rail_urban rail rail_electric bicycle pedestrian ship" speed="22.35" length="13.16" shape="809.27,932.96 808.89,937.41 807.20,940.51 805.88,943.51 806.58,947.65"/>
    </edge>
    <edge id=":132469_5" function="internal">
        <lane id=":132469_5_0" index="0" disallow="tram rail_urban rail rail_electric bicycle pedestrian ship" speed="22.35" length="18.51" shape="801.52,930.94 806.12,934.78 810.64,936.19 814.78,937.86 818.28,942.47"/>
        <lane id=":132469_5_1" index="1" disallow="tram rail_urban rail rail_electric bicycle pedestrian ship" speed="22.35" length="18.51" shape="801.52,930.94 805.56,934.89 809.16,936.93 812.39,939.17 815.36,943.76"/>
        <lane id=":132469_5_2" index="2" disallow="tram rail_urban rail rail_electric bicycle pedestrian ship" speed="22.35" length="18.51" shape="798.98,932.88 802.89,936.66 806.39,938.56 809.56,940.67 812.43,945.06"/>
        <lane id=":132469_5_3" index="3" disallow="tram rail_urban rail rail_electric bicycle pedestrian ship" speed="22.35" length="18.51" shape="798.98,932.88 802.32,936.75 804.89,939.23 807.13,941.90 809.51,946.35"/>
        <lane id=":132469_5_4" index="4" disallow="tram rail_urban rail rail_electric bicycle pedestrian ship" speed="22.35" length="18.51" shape="798.98,932.88 801.82,936.90 803.41,939.89 804.68,943.06 806.58,947.65"/>
    </edge>
    <edge id=":135496537_0" function="internal">
        <lane id=":135496537_0_0" index="0" disallow="tram rail_urban rail rail_electric bicycle pedestrian ship" speed="22.35" length="11.78" shape="982.17,996.83 985.71,997.27 988.08,997.87 990.42,998.67 993.85,999.73"/>
        <lane id=":135496537_0_1" index="1" disallow="tram rail_urban rail rail_electric bicycle pedestrian ship" speed="22.35" length="11.78" shape="981.91,1000.02 985.27,1000.44 987.52,1001.02 989.74,1001.80 993.00,1002.81"/>
    </edge>
    <edge id=":135496537_2" function="internal">
        <lane id=":135496537_2_0" index="0" disallow="tram rail_urban rail rail_electric bicycle pedestrian ship" speed="7.98" length="6.32" shape="987.07,1004.43 988.75,1003.47 990.30,1002.88 991.72,1002.66 993.00,1002.81"/>
    </edge>
    <edge id=":135497556_0" function="internal">
        <lane id=":135497556_0_0" index="0" disallow="tram rail_urban rail rail_electric bicycle pedestrian ship" speed="22.35" length="8.02" shape="730.05,866.48 736.67,871.10"/>
        <lane id=":135497556_0_1" index="1" disallow="tram rail_urban rail rail_electric bicycle pedestrian ship" speed="22.35" length="8.02" shape="728.26,869.13 734.80,873.69"/>
    </edge>
    <edge id=":135497556_2" function="internal">
        <lane id=":135497556_2_0" index="0" disallow="tram rail_urban rail rail_electric bicycle pedestrian ship" speed="22.35" length="7.83" shape="726.47,871.79 732.84,876.42"/>
        <lane id=":135497556_2_1" index="1" disallow="tram rail_urban rail rail_electric bicycle pedestrian ship" speed="22.35" length="7.83" shape="724.67,874.44 730.97,879.02"/>
    </edge>
    <edge id=":135505047_0" function="internal">
        <lane id=":135505047_0_0" index="0" disallow="tram rail_urban rail rail_electric bicycle pedestrian ship" speed="22.35" length="8.40" shape="1038.64,968.27 1036.30,967.38 1034.42,967.50 1032.53,967.62 1030.18,966.76"/>
        <lane id=":135505047_0_1" index="1" disallow="tram rail_urban rail rail_electric bicycle pedestrian ship" speed="22.35" length="8.40" shape="1038.64,968.27 1031.87,964.03"/>
        <lane id=":135505047_0_2" index="2" disallow="tram rail_urban rail rail_electric bicycle pedestrian ship" speed="22.35" length="8.40" shape="1040.34,965.56 1033.55,961.31"/>
        <lane id=":135505047_0_3" index="3" disallow="tram rail_urban rail rail_electric bicycle pedestrian ship" speed="22.35" length="8.40" shape="1040.34,965.56 1038.52,963.82 1037.80,962.07 1037.07,960.32 1035.24,958.59"/>
    </edge>
    <edge id=":1363703867_0" function="internal">
        <lane id=":1363703867_0_0" index="0" disallow="tram rail_urban rail rail_electric bicycle pedestrian ship" speed="22.35" length="19.29" shape="1059.13,1021.51 1064.61,1023.44 1068.45,1024.58 1072.16,1025.99 1077.24,1028.74"/>
        <lane id=":1363703867_0_1" index="1" disallow="tram rail_urban rail rail_electric bicycle pedestrian ship" speed="22.35" length="19.29" shape="1057.95,1024.49 1063.29,1026.36 1067.03,1027.45 1070.64,1028.81 1075.58,1031.48"/>
    </edge>
    <edge id=":2220961793_0" function="internal">
        <lane id=":2220961793_0_0" index="0" disallow="tram rail_urban rail rail_electric bicycle pedestrian ship" speed="22.35" length="26.41" shape="830.16,1067.97 830.76,1074.47 831.48,1080.02 831.90,1086.17 831.58,1094.50"/>
        <lane id=":2220961793_0_1" index="1" disallow="tram rail_urban rail rail_electric bicycle pedestrian ship" speed="22.35" length="26.41" shape="826.96,1068.14 827.56,1074.60 828.28,1080.05 828.70,1086.07 828.39,1094.24"/>
    </edge>
    <edge id=":2220961793_2" function="internal">
        <lane id=":2220961793_2_0" index="0" disallow="tram rail_urban rail rail_electric bicycle pedestrian ship" speed="22.35" length="25.32" shape="823.47,1068.47 824.44,1074.84 825.22,1080.16 825.56,1086.01 825.21,1093.98"/>
        <lane id=":2220961793_2_1" index="1" disallow="tram rail_urban rail rail_electric bicycle pedestrian ship" speed="22.35" length="25.32" shape="820.30,1068.88 821.26,1075.20 822.03,1080.37 822.36,1086.00 822.02,1093.72"/>
    </edge>
    <edge id=":23183579-AddedOffRampNode_0" function="internal">
        <lane id=":23183579-AddedOffRampNode_0_0" index="0" disallow="tram rail_urban rail rail_electric bicycle pedestrian ship" speed="22.35" length="8.20" shape="1307.83,1127.35 1305.37,1126.83 1303.52,1127.22 1301.68,1127.62 1299.22,1127.10"/>
        <lane id=":23183579-AddedOffRampNode_0_1" index="1" disallow="tram rail_urban rail rail_electric bicycle pedestrian ship" speed="22.35" length="8.20" shape="1307.83,1127.35 1300.49,1124.17"/>
        <lane id=":23183579-AddedOffRampNode_0_2" index="2" disallow="tram rail_urban rail rail_electric bicycle pedestrian ship" speed="22.35" length="8.20" shape="1309.10,1124.41 1301.76,1121.23"/>
        <lane id=":23183579-AddedOffRampNode_0_3" index="3" disallow="tram rail_urban rail rail_electric bicycle pedestrian ship" speed="22.35" length="8.20" shape="1310.38,1121.48 1303.04,1118.29"/>
    </edge>
    <edge id=":250702457_0" function="internal">
        <lane id=":250702457_0_0" index="0" disallow="tram rail_urban rail rail_electric bicycle pedestrian ship" speed="22.35" length="7.30" shape="565.63,764.09 563.54,763.24 562.12,762.63 560.74,761.94 558.77,760.86"/>
        <lane id=":250702457_0_1" index="1" disallow="tram rail_urban rail rail_electric bicycle pedestrian ship" speed="22.35" length="7.30" shape="566.65,761.05 564.72,760.26 563.41,759.70 562.14,759.06 560.31,758.06"/>
    </edge>
    <edge id=":250702457_2" function="internal">
        <lane id=":250702457_2_0" index="0" disallow="tram rail_urban rail rail_electric bicycle pedestrian ship" speed="22.35" length="6.14" shape="567.73,757.85 565.92,757.23 564.71,756.75 563.53,756.18 561.86,755.26"/>
        <lane id=":250702457_2_1" index="1" disallow="tram rail_urban rail rail_electric bicycle pedestrian ship" speed="22.35" length="6.14" shape="568.75,754.81 567.11,754.25 566.00,753.82 564.93,753.29 563.41,752.46"/>
    </edge>
    <edge id=":250702476_0" function="internal">
        <lane id=":250702476_0_0" index="0" disallow="tram rail_urban rail rail_electric bicycle pedestrian ship" speed="22.35" length="8.00" shape="527.37,744.77 534.48,748.64"/>
        <lane id=":250702476_0_1" index="1" disallow="tram rail_urban rail rail_electric bicycle pedestrian ship" speed="22.35" length="8.00" shape="525.92,747.63 532.87,751.41"/>
    </edge>
    <edge id=":250702476_2" function="internal">
        <lane id=":250702476_2_0" index="0" disallow="tram rail_urban rail rail_electric bicycle pedestrian ship" speed="22.35" length="7.62" shape="524.48,750.49 531.26,754.17"/>
        <lane id=":250702476_2_1" index="1" disallow="tram rail_urban rail rail_electric bicycle pedestrian ship" speed="22.35" length="7.62" shape="523.04,753.34 529.65,756.93"/>
    </edge>
    <edge id=":250703330_0" function="internal">
        <lane id=":250703330_0_0" index="0" disallow="tram rail_urban rail rail_electric bicycle pedestrian ship" speed="22.35" length="8.04" shape="1219.34,1094.61 1226.48,1098.49"/>
        <lane id=":250703330_0_1" index="1" disallow="tram rail_urban rail rail_electric bicycle pedestrian ship" speed="22.35" length="8.04" shape="1217.92,1097.48 1224.92,1101.28"/>
    </edge>
    <edge id=":250703330_2" function="internal">
        <lane id=":250703330_2_0" index="0" disallow="tram rail_urban rail rail_electric bicycle pedestrian ship" speed="22.35" length="7.99" shape="1217.17,1099.00 1219.16,1100.27 1220.30,1101.47 1221.42,1102.71 1223.36,1104.08"/>
        <lane id=":250703330_2_1" index="1" disallow="tram rail_urban rail rail_electric bicycle pedestrian ship" speed="22.35" length="7.99" shape="1215.74,1101.86 1217.69,1103.11 1218.80,1104.30 1219.90,1105.53 1221.80,1106.87"/>
    </edge>
    <edge id=":250703473_0" function="internal">
        <lane id=":250703473_0_0" index="0" disallow="tram rail_urban rail rail_electric bicycle pedestrian ship" speed="22.35" length="32.62" shape="1211.70,1086.77 1183.69,1069.83"/>
        <lane id=":250703473_0_1" index="1" disallow="tram rail_urban rail rail_electric bicycle pedestrian ship" speed="22.35" length="32.62" shape="1213.15,1083.92 1185.34,1067.09"/>
    </edge>
    <edge id=":250703473_2" function="internal">
        <lane id=":250703473_2_0" index="0" disallow="tram rail_urban rail rail_electric bicycle pedestrian ship" speed="22.35" length="32.01" shape="1214.61,1081.08 1205.44,1076.15 1198.62,1072.02 1192.95,1068.21 1187.20,1064.21"/>
        <lane id=":250703473_2_1" index="1" disallow="tram rail_urban rail rail_electric bicycle pedestrian ship" speed="22.35" length="32.01" shape="1216.06,1078.23 1207.03,1073.37 1200.32,1069.31 1194.73,1065.55 1189.01,1061.57"/>
    </edge>
    <edge id=":253932510_0" function="internal">
        <lane id=":253932510_0_0" index="0" disallow="tram rail_urban rail rail_electric bicycle pedestrian ship" speed="12.91" length="10.85" shape="959.06,855.17 958.41,852.18 957.19,850.38 955.41,848.82 953.09,846.55"/>
    </edge>
    <edge id=":253932510_1" function="internal">
        <lane id=":253932510_1_0" index="0" disallow="tram rail_urban rail rail_electric bicycle pedestrian ship" speed="14.02" length="12.85" shape="962.24,854.89 961.53,851.30 960.20,849.10 958.20,847.18 955.50,844.44"/>
    </edge>
    <edge id=":253932510_2" function="internal">
        <lane id=":253932510_2_0" index="0" disallow="tram rail_urban rail rail_electric bicycle pedestrian ship" speed="15.05" length="14.86" shape="965.43,854.60 964.65,850.42 963.21,847.81 960.99,845.53 957.91,842.33"/>
    </edge>
    <edge id=":253932510_3" function="internal">
        <lane id=":253932510_3_0" index="0" disallow="tram rail_urban rail rail_electric bicycle pedestrian ship" speed="22.35" length="14.27" shape="965.43,854.60 964.61,850.46 963.40,847.74 962.26,845.02 961.64,840.87"/>
        <lane id=":253932510_3_1" index="1" disallow="tram rail_urban rail rail_electric bicycle pedestrian ship" speed="22.35" length="14.27" shape="968.62,854.31 967.80,850.22 966.60,847.53 965.46,844.83 964.84,840.73"/>
    </edge>
    <edge id=":3228451614_0" function="internal">
        <lane id=":3228451614_0_0" index="0" disallow="tram rail_urban rail rail_electric bicycle pedestrian ship" speed="22.35" length="29.51" shape="414.41,681.97 406.94,677.69 401.92,674.57 396.78,671.71 388.93,668.24"/>
        <lane id=":3228451614_0_1" index="1" disallow="tram rail_urban rail rail_electric bicycle pedestrian ship" speed="22.35" length="29.51" shape="415.93,679.16 408.37,674.83 403.29,671.67 398.08,668.79 390.13,665.28"/>
        <lane id=":3228451614_0_2" index="2" disallow="tram rail_urban rail rail_electric bicycle pedestrian ship" speed="22.35" length="29.51" shape="417.45,676.34 409.80,671.96 404.65,668.77 399.38,665.86 391.34,662.31"/>
        <lane id=":3228451614_0_3" index="3" disallow="tram rail_urban rail rail_electric bicycle pedestrian ship" speed="22.35" length="29.51" shape="418.97,673.53 411.22,669.10 406.02,665.88 400.67,662.94 392.54,659.34"/>
    </edge>
    <edge id=":3228451794_0" function="internal">
        <lane id=":3228451794_0_0" index="0" disallow="tram rail_urban rail rail_electric bicycle pedestrian ship" speed="22.35" length="0.10" shape="644.54,784.63 644.54,784.63"/>
        <lane id=":3228451794_0_1" index="1" disallow="tram rail_urban rail rail_electric bicycle pedestrian ship" speed="22.35" length="0.10" shape="645.66,781.63 645.66,781.63"/>
    </edge>
    <edge id=":4557408-AddedOffRampNode_0" function="internal">
        <lane id=":4557408-AddedOffRampNode_0_0" index="0" disallow="tram rail_urban rail rail_electric bicycle pedestrian ship" speed="22.35" length="8.24" shape="622.97,808.34 625.43,808.95 627.48,807.74 629.58,806.43 632.22,806.77"/>
        <lane id=":4557408-AddedOffRampNode_0_1" index="1" disallow="tram rail_urban rail rail_electric bicycle pedestrian ship" speed="22.35" length="8.24" shape="622.97,808.34 625.01,809.24 626.71,809.09 628.45,808.88 630.63,809.55"/>
        <lane id=":4557408-AddedOffRampNode_0_2" index="2" disallow="tram rail_urban rail rail_electric bicycle pedestrian ship" speed="22.35" length="8.24" shape="622.97,808.34 624.71,809.63 625.92,810.47 627.18,811.25 629.05,812.33"/>
        <lane id=":4557408-AddedOffRampNode_0_3" index="3" disallow="tram rail_urban rail rail_electric bicycle pedestrian ship" speed="22.35" length="8.24" shape="621.06,810.91 622.89,812.27 624.17,813.16 625.49,813.98 627.46,815.11"/>
    </edge>
    <edge id=":48527690-AddedOnRampNode_0" function="internal">
        <lane id=":48527690-AddedOnRampNode_0_0" index="0" disallow="tram rail_urban rail rail_electric bicycle pedestrian ship" speed="22.35" length="7.99" shape="1311.41,1135.74 1313.39,1137.09 1314.35,1138.65 1315.32,1140.16 1317.35,1141.38"/>
        <lane id=":48527690-AddedOnRampNode_0_1" index="1" disallow="tram rail_urban rail rail_electric bicycle pedestrian ship" speed="22.35" length="7.99" shape="1310.19,1138.70 1317.35,1141.38"/>
        <lane id=":48527690-AddedOnRampNode_0_2" index="2" disallow="tram rail_urban rail rail_electric bicycle pedestrian ship" speed="22.35" length="7.99" shape="1308.97,1141.65 1316.32,1144.41"/>
        <lane id=":48527690-AddedOnRampNode_0_3" index="3" disallow="tram rail_urban rail rail_electric bicycle pedestrian ship" speed="22.35" length="7.99" shape="1307.75,1144.61 1315.28,1147.44"/>
    </edge>
    <edge id=":cluster_132455_4486506803_0" function="internal">
        <lane id=":cluster_132455_4486506803_0_0" index="0" disallow="tram rail_urban rail rail_electric bicycle pedestrian ship" speed="19.43" length="29.24" shape="838.73,817.23 831.18,821.14 826.65,825.02 823.37,830.19 819.57,837.96"/>
    </edge>
    <edge id=":cluster_132455_4486506803_1" function="internal">
        <lane id=":cluster_132455_4486506803_1_0" index="0" disallow="tram rail_urban rail rail_electric bicycle pedestrian ship" speed="19.75" length="30.24" shape="838.73,817.23 830.59,820.92 825.15,824.17 821.02,828.75 816.75,836.44"/>
    </edge>
    <edge id=":cluster_132455_4486506803_2" function="internal">
        <lane id=":cluster_132455_4486506803_2_0" index="0" disallow="tram rail_urban rail rail_electric bicycle pedestrian ship" speed="20.32" length="32.01" shape="837.14,814.44 828.67,818.35 822.87,821.94 818.41,826.90 813.93,834.92"/>
    </edge>
    <edge id=":cluster_132455_4486506803_3" function="internal">
        <lane id=":cluster_132455_4486506803_3_0" index="0" disallow="tram rail_urban rail rail_electric bicycle pedestrian ship" speed="22.35" length="31.58" shape="837.14,814.44 828.61,819.30 822.46,824.23 817.11,828.63 810.96,831.90"/>
        <lane id=":cluster_132455_4486506803_3_1" index="1" disallow="tram rail_urban rail rail_electric bicycle pedestrian ship" speed="22.35" length="31.58" shape="835.54,811.65 827.01,816.50 820.86,821.42 815.51,825.81 809.37,829.07"/>
    </edge>
    <edge id=":cluster_132455_4486506803_5" function="internal">
        <lane id=":cluster_132455_4486506803_5_0" index="0" disallow="tram rail_urban rail rail_electric bicycle pedestrian ship" speed="20.12" length="30.44" shape="832.03,809.26 830.15,818.39 827.51,824.37 824.01,829.97 819.57,837.96"/>
        <lane id=":cluster_132455_4486506803_5_1" index="1" disallow="tram rail_urban rail rail_electric bicycle pedestrian ship" speed="20.12" length="30.44" shape="828.86,808.85 827.06,817.57 824.54,823.19 821.14,828.54 816.75,836.44"/>
        <lane id=":cluster_132455_4486506803_5_2" index="2" disallow="tram rail_urban rail rail_electric bicycle pedestrian ship" speed="20.12" length="30.44" shape="825.69,808.43 823.95,816.80 821.49,822.18 818.18,827.31 813.93,834.92"/>
    </edge>
    <edge id=":cluster_132455_4486506803_8" function="internal">
        <lane id=":cluster_132455_4486506803_8_0" index="0" disallow="tram rail_urban rail rail_electric bicycle pedestrian ship" speed="13.99" length="29.15" shape="825.69,808.43 823.82,817.08 820.75,823.87 816.46,828.81 810.96,831.90"/>
    </edge>
    <edge id=":cluster_132455_4486506803_9" function="internal">
        <lane id=":cluster_132455_4486506803_9_0" index="0" disallow="tram rail_urban rail rail_electric bicycle pedestrian ship" speed="13.26" length="26.12" shape="822.51,808.01 820.84,815.78 818.10,821.88 814.27,826.31 809.37,829.07"/>
    </edge>
    <edge id=":cluster_132459_4486506802_0" function="internal">
        <lane id=":cluster_132459_4486506802_0_0" index="0" disallow="tram rail_urban rail rail_electric bicycle pedestrian ship" speed="22.35" length="35.63" shape="892.08,998.46 901.54,995.87 908.80,992.50 915.13,987.60 921.82,980.42"/>
    </edge>
    <edge id=":cluster_132459_4486506802_1" function="internal">