<configuration>
   <input>
       <net-file value="NormalIntersection.net.xml"/>
       <route-files value="NormalIntersection.rou.xml"/>
	   <gui-settings-file value="gui.settings.xml"/>
   </input>
</configuration>